<routes>

	<vType id="car5" accel="100.0" decel="100.0" sigma="0.0" length="5" minGap="5.000000" maxSpeed="11.180000" tau="0.200000" carFollowModel="CACC" color="255,255,255"/>
	<vType id="car6" accel="100.0" decel="100.0" sigma="0.0" length="6" minGap="5.000000" maxSpeed="11.180000" tau="0.200000" carFollowModel="CACC" color="255,255,255"/>
	<vType id="car7" accel="100.0" decel="100.0" sigma="0.0" length="7" minGap="5.000000" maxSpeed="11.180000" tau="0.200000" carFollowModel="CACC" color="255,255,255"/>
	<vType id="car8" accel="100.0" decel="100.0" sigma="0.0" length="8" minGap="5.000000" maxSpeed="11.180000" tau="0.200000" carFollowModel="CACC" color="255,255,255"/>
	<vType id="car9" accel="100.0" decel="100.0" sigma="0.0" length="9" minGap="5.000000" maxSpeed="11.180000" tau="0.200000" carFollowModel="CACC" color="255,255,255"/>

	<route id="0" edges=" 001_001_1"/>
	<route id="2" edges=" 001_002_2"/>
	<route id="5" edges=" 002_001_3"/>
	<route id="7" edges=" 001_001_4"/>
	<route id="1" edges=" 001_002_1"/>
	<route id="3" edges=" 002_002_2"/>
	<route id="4" edges=" 002_002_3"/>
	<route id="6" edges=" 002_001_4"/>

	<vehicle id="car_9052_SS" type="car8" route="3" depart="0" departLane = "0" departSpeed="11.180000"/>
	<vehicle id="car_1868_R" type="car9" route="2" depart="0" departLane = "0" departSpeed="11.180000"/>
	<vehicle id="car_7226_RS" type="car5" route="1" depart="0" departLane = "0" departSpeed="11.180000"/>
	<vehicle id="car_7227_SL" type="car5" route="1" depart="1" departLane = "0" departSpeed="11.180000"/>
	<vehicle id="car_1869_SLS" type="car7" route="2" depart="1" departLane = "0" departSpeed="11.180000"/>
	<vehicle id="car_5450_RS" type="car5" route="7" depart="1" departLane = "0" departSpeed="11.180000"/>
	<vehicle id="car_12648_R" type="car8" route="6" depart="1" departLane = "0" departSpeed="11.180000"/>
	<vehicle id="car_10827_SS" type="car6" route="4" depart="1" departLane = "0" departSpeed="11.180000"/>
	<vehicle id="car_5451_L" type="car6" route="7" depart="2" departLane = "0" departSpeed="11.180000"/>
	<vehicle id="car_1870_R" type="car8" route="2" depart="3" departLane = "0" departSpeed="11.180000"/>
	<vehicle id="car_10828_SS" type="car5" route="4" depart="3" departLane = "0" departSpeed="11.180000"/>
	<vehicle id="car_10829_SR" type="car9" route="4" depart="3" departLane = "0" departSpeed="11.180000"/>
	<vehicle id="car_10830_LL" type="car7" route="4" depart="3" departLane = "0" departSpeed="11.180000"/>
	<vehicle id="car_1871_LS" type="car7" route="2" depart="3" departLane = "0" departSpeed="11.180000"/>
	<vehicle id="car_0_SR" type="car8" route="0" depart="3" departLane = "0" departSpeed="11.180000"/>
	<vehicle id="car_5452_RS" type="car7" route="7" depart="3" departLane = "0" departSpeed="11.180000"/>
	<vehicle id="car_5453_RR" type="car8" route="7" depart="3" departLane = "0" departSpeed="11.180000"/>
	<vehicle id="car_7228_RS" type="car7" route="1" depart="4" departLane = "0" departSpeed="11.180000"/>
	<vehicle id="car_1872_R" type="car5" route="2" depart="4" departLane = "0" departSpeed="11.180000"/>
	<vehicle id="car_9053_RR" type="car9" route="3" depart="4" departLane = "0" departSpeed="11.180000"/>
	<vehicle id="car_1873_R" type="car7" route="2" depart="4" departLane = "0" departSpeed="11.180000"/>
	<vehicle id="car_1874_R" type="car6" route="2" depart="4" departLane = "0" departSpeed="11.180000"/>
	<vehicle id="car_12649_SR" type="car8" route="6" depart="4" departLane = "0" departSpeed="11.180000"/>
	<vehicle id="car_5454_RS" type="car8" route="7" depart="5" departLane = "0" departSpeed="11.180000"/>
	<vehicle id="car_1_LRS" type="car7" route="0" depart="5" departLane = "0" departSpeed="11.180000"/>
	<vehicle id="car_12650_SR" type="car9" route="6" depart="5" departLane = "0" departSpeed="11.180000"/>
	<vehicle id="car_12651_R" type="car6" route="6" depart="5" departLane = "0" departSpeed="11.180000"/>
	<vehicle id="car_3645_RS" type="car6" route="5" depart="5" departLane = "0" departSpeed="11.180000"/>
	<vehicle id="car_12652_LS" type="car9" route="6" depart="5" departLane = "0" departSpeed="11.180000"/>
	<vehicle id="car_7229_RLS" type="car9" route="1" depart="5" departLane = "0" departSpeed="11.180000"/>
	<vehicle id="car_3646_SL" type="car6" route="5" depart="6" departLane = "0" departSpeed="11.180000"/>
	<vehicle id="car_3647_SS" type="car5" route="5" depart="6" departLane = "0" departSpeed="11.180000"/>
	<vehicle id="car_7230_L" type="car9" route="1" depart="6" departLane = "0" departSpeed="11.180000"/>
	<vehicle id="car_2_SR" type="car9" route="0" depart="6" departLane = "0" departSpeed="11.180000"/>
	<vehicle id="car_10831_LL" type="car5" route="4" depart="7" departLane = "0" departSpeed="11.180000"/>
	<vehicle id="car_3648_SL" type="car9" route="5" depart="9" departLane = "0" departSpeed="11.180000"/>
	<vehicle id="car_1875_SS" type="car5" route="2" depart="9" departLane = "0" departSpeed="11.180000"/>
	<vehicle id="car_9054_L" type="car7" route="3" depart="9" departLane = "0" departSpeed="11.180000"/>
	<vehicle id="car_5455_SS" type="car9" route="7" depart="9" departLane = "0" departSpeed="11.180000"/>
	<vehicle id="car_9055_SL" type="car6" route="3" depart="9" departLane = "0" departSpeed="11.180000"/>
	<vehicle id="car_3_R" type="car8" route="0" depart="9" departLane = "0" departSpeed="11.180000"/>
	<vehicle id="car_3649_RLS" type="car6" route="5" depart="9" departLane = "0" departSpeed="11.180000"/>
	<vehicle id="car_5456_RLS" type="car5" route="7" depart="10" departLane = "0" departSpeed="11.180000"/>
	<vehicle id="car_3650_RS" type="car5" route="5" depart="10" departLane = "0" departSpeed="11.180000"/>
	<vehicle id="car_5457_SS" type="car9" route="7" depart="10" departLane = "0" departSpeed="11.180000"/>
	<vehicle id="car_12653_R" type="car6" route="6" depart="10" departLane = "0" departSpeed="11.180000"/>
	<vehicle id="car_1876_R" type="car9" route="2" depart="11" departLane = "0" departSpeed="11.180000"/>
	<vehicle id="car_7231_L" type="car9" route="1" depart="11" departLane = "0" departSpeed="11.180000"/>
	<vehicle id="car_12654_R" type="car8" route="6" depart="11" departLane = "0" departSpeed="11.180000"/>
	<vehicle id="car_1877_R" type="car8" route="2" depart="11" departLane = "0" departSpeed="11.180000"/>
	<vehicle id="car_3651_SS" type="car5" route="5" depart="12" departLane = "0" departSpeed="11.180000"/>
	<vehicle id="car_1878_R" type="car5" route="2" depart="12" departLane = "0" departSpeed="11.180000"/>
	<vehicle id="car_9056_L" type="car7" route="3" depart="12" departLane = "0" departSpeed="11.180000"/>
	<vehicle id="car_7232_RS" type="car8" route="1" depart="12" departLane = "0" departSpeed="11.180000"/>
	<vehicle id="car_12655_R" type="car8" route="6" depart="12" departLane = "0" departSpeed="11.180000"/>
	<vehicle id="car_3652_RS" type="car7" route="5" depart="13" departLane = "0" departSpeed="11.180000"/>
	<vehicle id="car_10832_SS" type="car5" route="4" depart="14" departLane = "0" departSpeed="11.180000"/>
	<vehicle id="car_5458_SS" type="car6" route="7" depart="14" departLane = "0" departSpeed="11.180000"/>
	<vehicle id="car_4_LL" type="car9" route="0" depart="14" departLane = "0" departSpeed="11.180000"/>
	<vehicle id="car_3653_RLS" type="car7" route="5" depart="14" departLane = "0" departSpeed="11.180000"/>
	<vehicle id="car_12656_R" type="car5" route="6" depart="14" departLane = "0" departSpeed="11.180000"/>
	<vehicle id="car_3654_L" type="car8" route="5" depart="15" departLane = "0" departSpeed="11.180000"/>
	<vehicle id="car_5_LL" type="car8" route="0" depart="15" departLane = "0" departSpeed="11.180000"/>
	<vehicle id="car_9057_SS" type="car6" route="3" depart="15" departLane = "0" departSpeed="11.180000"/>
	<vehicle id="car_1879_SR" type="car8" route="2" depart="15" departLane = "0" departSpeed="11.180000"/>
	<vehicle id="car_9058_L" type="car8" route="3" depart="15" departLane = "0" departSpeed="11.180000"/>
	<vehicle id="car_3655_SS" type="car7" route="5" depart="15" departLane = "0" departSpeed="11.180000"/>
	<vehicle id="car_12657_R" type="car7" route="6" depart="15" departLane = "0" departSpeed="11.180000"/>
	<vehicle id="car_6_SS" type="car5" route="0" depart="16" departLane = "0" departSpeed="11.180000"/>
	<vehicle id="car_3656_L" type="car8" route="5" depart="16" departLane = "0" departSpeed="11.180000"/>
	<vehicle id="car_10833_R" type="car9" route="4" depart="16" departLane = "0" departSpeed="11.180000"/>
	<vehicle id="car_10834_SS" type="car8" route="4" depart="17" departLane = "0" departSpeed="11.180000"/>
	<vehicle id="car_1880_R" type="car9" route="2" depart="18" departLane = "0" departSpeed="11.180000"/>
	<vehicle id="car_12658_R" type="car9" route="6" depart="18" departLane = "0" departSpeed="11.180000"/>
	<vehicle id="car_3657_RS" type="car9" route="5" depart="18" departLane = "0" departSpeed="11.180000"/>
	<vehicle id="car_10835_SLS" type="car9" route="4" depart="18" departLane = "0" departSpeed="11.180000"/>
	<vehicle id="car_7233_RS" type="car8" route="1" depart="19" departLane = "0" departSpeed="11.180000"/>
	<vehicle id="car_1881_LL" type="car7" route="2" depart="19" departLane = "0" departSpeed="11.180000"/>
	<vehicle id="car_3658_SL" type="car9" route="5" depart="20" departLane = "0" departSpeed="11.180000"/>
	<vehicle id="car_12659_LS" type="car5" route="6" depart="20" departLane = "0" departSpeed="11.180000"/>
	<vehicle id="car_1882_SR" type="car6" route="2" depart="20" departLane = "0" departSpeed="11.180000"/>
	<vehicle id="car_10836_LRL" type="car5" route="4" depart="20" departLane = "0" departSpeed="11.180000"/>
	<vehicle id="car_12660_LS" type="car7" route="6" depart="21" departLane = "0" departSpeed="11.180000"/>
	<vehicle id="car_10837_LS" type="car9" route="4" depart="21" departLane = "0" departSpeed="11.180000"/>
	<vehicle id="car_7_SLR" type="car9" route="0" depart="21" departLane = "0" departSpeed="11.180000"/>
	<vehicle id="car_9059_L" type="car8" route="3" depart="22" departLane = "0" departSpeed="11.180000"/>
	<vehicle id="car_10838_R" type="car8" route="4" depart="22" departLane = "0" departSpeed="11.180000"/>
	<vehicle id="car_12661_SLS" type="car8" route="6" depart="22" departLane = "0" departSpeed="11.180000"/>
	<vehicle id="car_3659_SRS" type="car7" route="5" depart="22" departLane = "0" departSpeed="11.180000"/>
	<vehicle id="car_1883_SR" type="car5" route="2" depart="23" departLane = "0" departSpeed="11.180000"/>
	<vehicle id="car_10839_LL" type="car6" route="4" depart="23" departLane = "0" departSpeed="11.180000"/>
	<vehicle id="car_5459_L" type="car9" route="7" depart="23" departLane = "0" departSpeed="11.180000"/>
	<vehicle id="car_9060_RR" type="car6" route="3" depart="24" departLane = "0" departSpeed="11.180000"/>
	<vehicle id="car_12662_LS" type="car8" route="6" depart="24" departLane = "0" departSpeed="11.180000"/>
	<vehicle id="car_3660_L" type="car9" route="5" depart="24" departLane = "0" departSpeed="11.180000"/>
	<vehicle id="car_8_R" type="car7" route="0" depart="24" departLane = "0" departSpeed="11.180000"/>
	<vehicle id="car_3661_RLR" type="car5" route="5" depart="24" departLane = "0" departSpeed="11.180000"/>
	<vehicle id="car_9061_RS" type="car8" route="3" depart="24" departLane = "0" departSpeed="11.180000"/>
	<vehicle id="car_7234_SRS" type="car6" route="1" depart="25" departLane = "0" departSpeed="11.180000"/>
	<vehicle id="car_9062_L" type="car9" route="3" depart="25" departLane = "0" departSpeed="11.180000"/>
	<vehicle id="car_12663_SS" type="car8" route="6" depart="25" departLane = "0" departSpeed="11.180000"/>
	<vehicle id="car_1884_SS" type="car9" route="2" depart="25" departLane = "0" departSpeed="11.180000"/>
	<vehicle id="car_7235_SS" type="car8" route="1" depart="25" departLane = "0" departSpeed="11.180000"/>
	<vehicle id="car_5460_RS" type="car5" route="7" depart="26" departLane = "0" departSpeed="11.180000"/>
	<vehicle id="car_9063_SRS" type="car6" route="3" depart="26" departLane = "0" departSpeed="11.180000"/>
	<vehicle id="car_5461_L" type="car6" route="7" depart="27" departLane = "0" departSpeed="11.180000"/>
	<vehicle id="car_9_LL" type="car6" route="0" depart="27" departLane = "0" departSpeed="11.180000"/>
	<vehicle id="car_10_R" type="car7" route="0" depart="27" departLane = "0" departSpeed="11.180000"/>
	<vehicle id="car_9064_SL" type="car7" route="3" depart="27" departLane = "0" departSpeed="11.180000"/>
	<vehicle id="car_9065_RS" type="car8" route="3" depart="27" departLane = "0" departSpeed="11.180000"/>
	<vehicle id="car_5462_RS" type="car9" route="7" depart="28" departLane = "0" departSpeed="11.180000"/>
	<vehicle id="car_3662_RR" type="car8" route="5" depart="28" departLane = "0" departSpeed="11.180000"/>
	<vehicle id="car_1885_R" type="car7" route="2" depart="28" departLane = "0" departSpeed="11.180000"/>
	<vehicle id="car_11_LL" type="car6" route="0" depart="28" departLane = "0" departSpeed="11.180000"/>
	<vehicle id="car_1886_SR" type="car6" route="2" depart="29" departLane = "0" departSpeed="11.180000"/>
	<vehicle id="car_3663_L" type="car7" route="5" depart="29" departLane = "0" departSpeed="11.180000"/>
	<vehicle id="car_3664_RLS" type="car5" route="5" depart="29" departLane = "0" departSpeed="11.180000"/>
	<vehicle id="car_3665_SS" type="car9" route="5" depart="29" departLane = "0" departSpeed="11.180000"/>
	<vehicle id="car_12664_R" type="car8" route="6" depart="30" departLane = "0" departSpeed="11.180000"/>
	<vehicle id="car_12_R" type="car5" route="0" depart="30" departLane = "0" departSpeed="11.180000"/>
	<vehicle id="car_9066_L" type="car7" route="3" depart="30" departLane = "0" departSpeed="11.180000"/>
	<vehicle id="car_10840_LS" type="car7" route="4" depart="30" departLane = "0" departSpeed="11.180000"/>
	<vehicle id="car_10841_SS" type="car9" route="4" depart="30" departLane = "0" departSpeed="11.180000"/>
	<vehicle id="car_5463_RS" type="car7" route="7" depart="30" departLane = "0" departSpeed="11.180000"/>
	<vehicle id="car_3666_RR" type="car8" route="5" depart="30" departLane = "0" departSpeed="11.180000"/>
	<vehicle id="car_7236_L" type="car9" route="1" depart="30" departLane = "0" departSpeed="11.180000"/>
	<vehicle id="car_1887_R" type="car7" route="2" depart="30" departLane = "0" departSpeed="11.180000"/>
	<vehicle id="car_13_R" type="car9" route="0" depart="31" departLane = "0" departSpeed="11.180000"/>
	<vehicle id="car_1888_LRL" type="car9" route="2" depart="31" departLane = "0" departSpeed="11.180000"/>
	<vehicle id="car_10842_SR" type="car8" route="4" depart="32" departLane = "0" departSpeed="11.180000"/>
	<vehicle id="car_1889_R" type="car8" route="2" depart="32" departLane = "0" departSpeed="11.180000"/>
	<vehicle id="car_7237_SS" type="car8" route="1" depart="32" departLane = "0" departSpeed="11.180000"/>
	<vehicle id="car_3667_SL" type="car6" route="5" depart="32" departLane = "0" departSpeed="11.180000"/>
	<vehicle id="car_7238_RLS" type="car9" route="1" depart="33" departLane = "0" departSpeed="11.180000"/>
	<vehicle id="car_14_SLS" type="car8" route="0" depart="33" departLane = "0" departSpeed="11.180000"/>
	<vehicle id="car_7239_RS" type="car5" route="1" depart="33" departLane = "0" departSpeed="11.180000"/>
	<vehicle id="car_3668_RS" type="car9" route="5" depart="34" departLane = "0" departSpeed="11.180000"/>
	<vehicle id="car_1890_LS" type="car8" route="2" depart="35" departLane = "0" departSpeed="11.180000"/>
	<vehicle id="car_9067_L" type="car5" route="3" depart="35" departLane = "0" departSpeed="11.180000"/>
	<vehicle id="car_12665_SR" type="car5" route="6" depart="36" departLane = "0" departSpeed="11.180000"/>
	<vehicle id="car_10843_R" type="car9" route="4" depart="36" departLane = "0" departSpeed="11.180000"/>
	<vehicle id="car_7240_RR" type="car5" route="1" depart="36" departLane = "0" departSpeed="11.180000"/>
	<vehicle id="car_1891_R" type="car8" route="2" depart="36" departLane = "0" departSpeed="11.180000"/>
	<vehicle id="car_12666_LS" type="car6" route="6" depart="36" departLane = "0" departSpeed="11.180000"/>
	<vehicle id="car_12667_R" type="car8" route="6" depart="37" departLane = "0" departSpeed="11.180000"/>
	<vehicle id="car_7241_RR" type="car8" route="1" depart="37" departLane = "0" departSpeed="11.180000"/>
	<vehicle id="car_12668_R" type="car9" route="6" depart="38" departLane = "0" departSpeed="11.180000"/>
	<vehicle id="car_5464_RLR" type="car9" route="7" depart="38" departLane = "0" departSpeed="11.180000"/>
	<vehicle id="car_7242_L" type="car5" route="1" depart="38" departLane = "0" departSpeed="11.180000"/>
	<vehicle id="car_9068_SRS" type="car8" route="3" depart="38" departLane = "0" departSpeed="11.180000"/>
	<vehicle id="car_7243_L" type="car7" route="1" depart="38" departLane = "0" departSpeed="11.180000"/>
	<vehicle id="car_5465_RLR" type="car5" route="7" depart="38" departLane = "0" departSpeed="11.180000"/>
	<vehicle id="car_10844_SR" type="car6" route="4" depart="38" departLane = "0" departSpeed="11.180000"/>
	<vehicle id="car_7244_SS" type="car7" route="1" depart="38" departLane = "0" departSpeed="11.180000"/>
	<vehicle id="car_5466_L" type="car9" route="7" depart="38" departLane = "0" departSpeed="11.180000"/>
	<vehicle id="car_10845_R" type="car6" route="4" depart="39" departLane = "0" departSpeed="11.180000"/>
	<vehicle id="car_15_SS" type="car8" route="0" depart="39" departLane = "0" departSpeed="11.180000"/>
	<vehicle id="car_1892_SR" type="car7" route="2" depart="40" departLane = "0" departSpeed="11.180000"/>
	<vehicle id="car_1893_R" type="car6" route="2" depart="40" departLane = "0" departSpeed="11.180000"/>
	<vehicle id="car_9069_SRL" type="car6" route="3" depart="40" departLane = "0" departSpeed="11.180000"/>
	<vehicle id="car_10846_LS" type="car6" route="4" depart="40" departLane = "0" departSpeed="11.180000"/>
	<vehicle id="car_10847_LS" type="car5" route="4" depart="40" departLane = "0" departSpeed="11.180000"/>
	<vehicle id="car_3669_L" type="car9" route="5" depart="40" departLane = "0" departSpeed="11.180000"/>
	<vehicle id="car_7245_RLS" type="car9" route="1" depart="41" departLane = "0" departSpeed="11.180000"/>
	<vehicle id="car_12669_R" type="car6" route="6" depart="41" departLane = "0" departSpeed="11.180000"/>
	<vehicle id="car_3670_L" type="car9" route="5" depart="41" departLane = "0" departSpeed="11.180000"/>
	<vehicle id="car_16_SR" type="car6" route="0" depart="41" departLane = "0" departSpeed="11.180000"/>
	<vehicle id="car_12670_R" type="car9" route="6" depart="41" departLane = "0" departSpeed="11.180000"/>
	<vehicle id="car_5467_L" type="car8" route="7" depart="41" departLane = "0" departSpeed="11.180000"/>
	<vehicle id="car_17_SS" type="car5" route="0" depart="42" departLane = "0" departSpeed="11.180000"/>
	<vehicle id="car_7246_L" type="car6" route="1" depart="42" departLane = "0" departSpeed="11.180000"/>
	<vehicle id="car_18_LL" type="car5" route="0" depart="43" departLane = "0" departSpeed="11.180000"/>
	<vehicle id="car_12671_R" type="car5" route="6" depart="43" departLane = "0" departSpeed="11.180000"/>
	<vehicle id="car_1894_LL" type="car8" route="2" depart="43" departLane = "0" departSpeed="11.180000"/>
	<vehicle id="car_7247_L" type="car5" route="1" depart="43" departLane = "0" departSpeed="11.180000"/>
	<vehicle id="car_1895_R" type="car9" route="2" depart="44" departLane = "0" departSpeed="11.180000"/>
	<vehicle id="car_7248_SS" type="car9" route="1" depart="44" departLane = "0" departSpeed="11.180000"/>
	<vehicle id="car_7249_SS" type="car8" route="1" depart="44" departLane = "0" departSpeed="11.180000"/>
	<vehicle id="car_1896_SS" type="car9" route="2" depart="45" departLane = "0" departSpeed="11.180000"/>
	<vehicle id="car_1897_LS" type="car5" route="2" depart="45" departLane = "0" departSpeed="11.180000"/>
	<vehicle id="car_5468_L" type="car6" route="7" depart="45" departLane = "0" departSpeed="11.180000"/>
	<vehicle id="car_1898_LL" type="car6" route="2" depart="45" departLane = "0" departSpeed="11.180000"/>
	<vehicle id="car_12672_SS" type="car9" route="6" depart="45" departLane = "0" departSpeed="11.180000"/>
	<vehicle id="car_12673_LRS" type="car5" route="6" depart="45" departLane = "0" departSpeed="11.180000"/>
	<vehicle id="car_1899_R" type="car5" route="2" depart="45" departLane = "0" departSpeed="11.180000"/>
	<vehicle id="car_7250_SS" type="car7" route="1" depart="46" departLane = "0" departSpeed="11.180000"/>
	<vehicle id="car_12674_SR" type="car8" route="6" depart="46" departLane = "0" departSpeed="11.180000"/>
	<vehicle id="car_9070_RS" type="car7" route="3" depart="46" departLane = "0" departSpeed="11.180000"/>
	<vehicle id="car_12675_SR" type="car7" route="6" depart="46" departLane = "0" departSpeed="11.180000"/>
	<vehicle id="car_5469_SL" type="car5" route="7" depart="47" departLane = "0" departSpeed="11.180000"/>
	<vehicle id="car_5470_L" type="car5" route="7" depart="47" departLane = "0" departSpeed="11.180000"/>
	<vehicle id="car_1900_LL" type="car8" route="2" depart="47" departLane = "0" departSpeed="11.180000"/>
	<vehicle id="car_19_LL" type="car9" route="0" depart="48" departLane = "0" departSpeed="11.180000"/>
	<vehicle id="car_3671_SL" type="car8" route="5" depart="48" departLane = "0" departSpeed="11.180000"/>
	<vehicle id="car_1901_R" type="car9" route="2" depart="48" departLane = "0" departSpeed="11.180000"/>
	<vehicle id="car_10848_R" type="car5" route="4" depart="49" departLane = "0" departSpeed="11.180000"/>
	<vehicle id="car_5471_SS" type="car9" route="7" depart="49" departLane = "0" departSpeed="11.180000"/>
	<vehicle id="car_20_LRL" type="car6" route="0" depart="50" departLane = "0" departSpeed="11.180000"/>
	<vehicle id="car_12676_R" type="car9" route="6" depart="50" departLane = "0" departSpeed="11.180000"/>
	<vehicle id="car_5472_SL" type="car6" route="7" depart="50" departLane = "0" departSpeed="11.180000"/>
	<vehicle id="car_12677_SR" type="car6" route="6" depart="50" departLane = "0" departSpeed="11.180000"/>
	<vehicle id="car_12678_LL" type="car6" route="6" depart="50" departLane = "0" departSpeed="11.180000"/>
	<vehicle id="car_1902_SS" type="car5" route="2" depart="50" departLane = "0" departSpeed="11.180000"/>
	<vehicle id="car_10849_R" type="car6" route="4" depart="51" departLane = "0" departSpeed="11.180000"/>
	<vehicle id="car_12679_LRL" type="car6" route="6" depart="51" departLane = "0" departSpeed="11.180000"/>
	<vehicle id="car_10850_R" type="car8" route="4" depart="51" departLane = "0" departSpeed="11.180000"/>
	<vehicle id="car_12680_R" type="car6" route="6" depart="52" departLane = "0" departSpeed="11.180000"/>
	<vehicle id="car_9071_RLS" type="car6" route="3" depart="52" departLane = "0" departSpeed="11.180000"/>
	<vehicle id="car_10851_SR" type="car6" route="4" depart="52" departLane = "0" departSpeed="11.180000"/>
	<vehicle id="car_5473_L" type="car7" route="7" depart="52" departLane = "0" departSpeed="11.180000"/>
	<vehicle id="car_5474_SS" type="car8" route="7" depart="52" departLane = "0" departSpeed="11.180000"/>
	<vehicle id="car_3672_SL" type="car5" route="5" depart="53" departLane = "0" departSpeed="11.180000"/>
	<vehicle id="car_3673_SL" type="car6" route="5" depart="53" departLane = "0" departSpeed="11.180000"/>
	<vehicle id="car_9072_SL" type="car9" route="3" depart="53" departLane = "0" departSpeed="11.180000"/>
	<vehicle id="car_9073_SS" type="car7" route="3" depart="53" departLane = "0" departSpeed="11.180000"/>
	<vehicle id="car_21_SLS" type="car9" route="0" depart="53" departLane = "0" departSpeed="11.180000"/>
	<vehicle id="car_7251_RR" type="car6" route="1" depart="54" departLane = "0" departSpeed="11.180000"/>
	<vehicle id="car_12681_SS" type="car8" route="6" depart="54" departLane = "0" departSpeed="11.180000"/>
	<vehicle id="car_7252_SRS" type="car6" route="1" depart="54" departLane = "0" departSpeed="11.180000"/>
	<vehicle id="car_3674_L" type="car6" route="5" depart="54" departLane = "0" departSpeed="11.180000"/>
	<vehicle id="car_5475_L" type="car9" route="7" depart="54" departLane = "0" departSpeed="11.180000"/>
	<vehicle id="car_22_LL" type="car8" route="0" depart="54" departLane = "0" departSpeed="11.180000"/>
	<vehicle id="car_5476_SRS" type="car9" route="7" depart="55" departLane = "0" departSpeed="11.180000"/>
	<vehicle id="car_3675_SS" type="car6" route="5" depart="55" departLane = "0" departSpeed="11.180000"/>
	<vehicle id="car_12682_LRL" type="car6" route="6" depart="55" departLane = "0" departSpeed="11.180000"/>
	<vehicle id="car_7253_SRS" type="car8" route="1" depart="55" departLane = "0" departSpeed="11.180000"/>
	<vehicle id="car_12683_R" type="car9" route="6" depart="55" departLane = "0" departSpeed="11.180000"/>
	<vehicle id="car_3676_L" type="car9" route="5" depart="55" departLane = "0" departSpeed="11.180000"/>
	<vehicle id="car_7254_RR" type="car7" route="1" depart="55" departLane = "0" departSpeed="11.180000"/>
	<vehicle id="car_3677_RR" type="car6" route="5" depart="56" departLane = "0" departSpeed="11.180000"/>
	<vehicle id="car_1903_SS" type="car8" route="2" depart="56" departLane = "0" departSpeed="11.180000"/>
	<vehicle id="car_3678_SL" type="car9" route="5" depart="56" departLane = "0" departSpeed="11.180000"/>
	<vehicle id="car_9074_SRS" type="car7" route="3" depart="56" departLane = "0" departSpeed="11.180000"/>
	<vehicle id="car_7255_RS" type="car8" route="1" depart="57" departLane = "0" departSpeed="11.180000"/>
	<vehicle id="car_9075_L" type="car8" route="3" depart="57" departLane = "0" departSpeed="11.180000"/>
	<vehicle id="car_9076_SS" type="car5" route="3" depart="57" departLane = "0" departSpeed="11.180000"/>
	<vehicle id="car_1904_LL" type="car6" route="2" depart="58" departLane = "0" departSpeed="11.180000"/>
	<vehicle id="car_7256_SL" type="car9" route="1" depart="58" departLane = "0" departSpeed="11.180000"/>
	<vehicle id="car_23_SS" type="car5" route="0" depart="58" departLane = "0" departSpeed="11.180000"/>
	<vehicle id="car_7257_L" type="car6" route="1" depart="58" departLane = "0" departSpeed="11.180000"/>
	<vehicle id="car_7258_SS" type="car5" route="1" depart="59" departLane = "0" departSpeed="11.180000"/>
	<vehicle id="car_10852_SS" type="car7" route="4" depart="59" departLane = "0" departSpeed="11.180000"/>
	<vehicle id="car_1905_SLR" type="car7" route="2" depart="59" departLane = "0" departSpeed="11.180000"/>
	<vehicle id="car_3679_L" type="car5" route="5" depart="59" departLane = "0" departSpeed="11.180000"/>
	<vehicle id="car_3680_L" type="car9" route="5" depart="59" departLane = "0" departSpeed="11.180000"/>
	<vehicle id="car_7259_RR" type="car9" route="1" depart="60" departLane = "0" departSpeed="11.180000"/>
	<vehicle id="car_24_R" type="car9" route="0" depart="60" departLane = "0" departSpeed="11.180000"/>
	<vehicle id="car_7260_L" type="car7" route="1" depart="60" departLane = "0" departSpeed="11.180000"/>
	<vehicle id="car_10853_R" type="car9" route="4" depart="60" departLane = "0" departSpeed="11.180000"/>
	<vehicle id="car_1906_SLS" type="car7" route="2" depart="61" departLane = "0" departSpeed="11.180000"/>
	<vehicle id="car_12684_SR" type="car6" route="6" depart="61" departLane = "0" departSpeed="11.180000"/>
	<vehicle id="car_10854_LRS" type="car8" route="4" depart="62" departLane = "0" departSpeed="11.180000"/>
	<vehicle id="car_5477_SL" type="car7" route="7" depart="62" departLane = "0" departSpeed="11.180000"/>
	<vehicle id="car_25_R" type="car5" route="0" depart="62" departLane = "0" departSpeed="11.180000"/>
	<vehicle id="car_10855_LS" type="car7" route="4" depart="63" departLane = "0" departSpeed="11.180000"/>
	<vehicle id="car_10856_R" type="car6" route="4" depart="63" departLane = "0" departSpeed="11.180000"/>
	<vehicle id="car_12685_LL" type="car5" route="6" depart="64" departLane = "0" departSpeed="11.180000"/>
	<vehicle id="car_7261_L" type="car6" route="1" depart="64" departLane = "0" departSpeed="11.180000"/>
	<vehicle id="car_1907_R" type="car7" route="2" depart="64" departLane = "0" departSpeed="11.180000"/>
	<vehicle id="car_12686_SR" type="car7" route="6" depart="65" departLane = "0" departSpeed="11.180000"/>
	<vehicle id="car_26_R" type="car6" route="0" depart="65" departLane = "0" departSpeed="11.180000"/>
	<vehicle id="car_9077_SS" type="car7" route="3" depart="66" departLane = "0" departSpeed="11.180000"/>
	<vehicle id="car_3681_RR" type="car8" route="5" depart="66" departLane = "0" departSpeed="11.180000"/>
	<vehicle id="car_7262_RS" type="car7" route="1" depart="66" departLane = "0" departSpeed="11.180000"/>
	<vehicle id="car_7263_L" type="car7" route="1" depart="66" departLane = "0" departSpeed="11.180000"/>
	<vehicle id="car_1908_R" type="car5" route="2" depart="66" departLane = "0" departSpeed="11.180000"/>
	<vehicle id="car_10857_R" type="car8" route="4" depart="67" departLane = "0" departSpeed="11.180000"/>
	<vehicle id="car_7264_L" type="car5" route="1" depart="67" departLane = "0" departSpeed="11.180000"/>
	<vehicle id="car_27_SLR" type="car9" route="0" depart="67" departLane = "0" departSpeed="11.180000"/>
	<vehicle id="car_5478_RR" type="car5" route="7" depart="67" departLane = "0" departSpeed="11.180000"/>
	<vehicle id="car_5479_RLS" type="car8" route="7" depart="67" departLane = "0" departSpeed="11.180000"/>
	<vehicle id="car_12687_R" type="car9" route="6" depart="67" departLane = "0" departSpeed="11.180000"/>
	<vehicle id="car_1909_LL" type="car5" route="2" depart="69" departLane = "0" departSpeed="11.180000"/>
	<vehicle id="car_3682_L" type="car8" route="5" depart="69" departLane = "0" departSpeed="11.180000"/>
	<vehicle id="car_28_SS" type="car8" route="0" depart="69" departLane = "0" departSpeed="11.180000"/>
	<vehicle id="car_10858_SS" type="car6" route="4" depart="69" departLane = "0" departSpeed="11.180000"/>
	<vehicle id="car_3683_L" type="car8" route="5" depart="69" departLane = "0" departSpeed="11.180000"/>
	<vehicle id="car_3684_L" type="car6" route="5" depart="70" departLane = "0" departSpeed="11.180000"/>