<routes>

	<vType id="car5" accel="100.0" decel="100.0" sigma="0.0" length="5" minGap="5.000000" maxSpeed="11.180000" tau="0.200000" carFollowModel="CACC" color="255,255,255"/>
	<vType id="car6" accel="100.0" decel="100.0" sigma="0.0" length="6" minGap="5.000000" maxSpeed="11.180000" tau="0.200000" carFollowModel="CACC" color="255,255,255"/>
	<vType id="car7" accel="100.0" decel="100.0" sigma="0.0" length="7" minGap="5.000000" maxSpeed="11.180000" tau="0.200000" carFollowModel="CACC" color="255,255,255"/>
	<vType id="car8" accel="100.0" decel="100.0" sigma="0.0" length="8" minGap="5.000000" maxSpeed="11.180000" tau="0.200000" carFollowModel="CACC" color="255,255,255"/>
	<vType id="car9" accel="100.0" decel="100.0" sigma="0.0" length="9" minGap="5.000000" maxSpeed="11.180000" tau="0.200000" carFollowModel="CACC" color="255,255,255"/>

	<route id="0" edges=" 001_001_1"/>
	<route id="2" edges=" 001_002_2"/>
	<route id="5" edges=" 002_001_3"/>
	<route id="7" edges=" 001_001_4"/>
	<route id="1" edges=" 001_002_1"/>
	<route id="3" edges=" 002_002_2"/>
	<route id="4" edges=" 002_002_3"/>
	<route id="6" edges=" 002_001_4"/>

	<vehicle id="car_2548_SLS" type="car5" route="6" depart="0" departLane = "0" departSpeed="11.180000"/>
	<vehicle id="car_2549_R" type="car6" route="6" depart="2" departLane = "0" departSpeed="11.180000"/>
	<vehicle id="car_735_L" type="car7" route="5" depart="3" departLane = "0" departSpeed="11.180000"/>
	<vehicle id="car_736_L" type="car8" route="5" depart="5" departLane = "0" departSpeed="11.180000"/>
	<vehicle id="car_1084_SL" type="car6" route="7" depart="8" departLane = "0" departSpeed="11.180000"/>
	<vehicle id="car_2151_R" type="car6" route="4" depart="9" departLane = "0" departSpeed="11.180000"/>
	<vehicle id="car_1085_RR" type="car5" route="7" depart="11" departLane = "0" departSpeed="11.180000"/>
	<vehicle id="car_2152_LRL" type="car5" route="4" depart="11" departLane = "0" departSpeed="11.180000"/>
	<vehicle id="car_737_L" type="car8" route="5" depart="12" departLane = "0" departSpeed="11.180000"/>
	<vehicle id="car_2550_LRS" type="car7" route="6" depart="13" departLane = "0" departSpeed="11.180000"/>
	<vehicle id="car_1086_RS" type="car6" route="7" depart="13" departLane = "0" departSpeed="11.180000"/>
	<vehicle id="car_383_R" type="car8" route="2" depart="14" departLane = "0" departSpeed="11.180000"/>
	<vehicle id="car_2153_LS" type="car8" route="4" depart="17" departLane = "0" departSpeed="11.180000"/>
	<vehicle id="car_0_SR" type="car8" route="0" depart="18" departLane = "0" departSpeed="11.180000"/>
	<vehicle id="car_2551_LL" type="car8" route="6" depart="21" departLane = "0" departSpeed="11.180000"/>
	<vehicle id="car_1805_L" type="car9" route="3" depart="22" departLane = "0" departSpeed="11.180000"/>
	<vehicle id="car_384_LL" type="car8" route="2" depart="23" departLane = "0" departSpeed="11.180000"/>
	<vehicle id="car_1087_RR" type="car5" route="7" depart="25" departLane = "0" departSpeed="11.180000"/>
	<vehicle id="car_1_LRS" type="car7" route="0" depart="25" departLane = "0" departSpeed="11.180000"/>
	<vehicle id="car_2154_R" type="car5" route="4" depart="27" departLane = "0" departSpeed="11.180000"/>
	<vehicle id="car_2552_R" type="car6" route="6" depart="27" departLane = "0" departSpeed="11.180000"/>
	<vehicle id="car_1088_RS" type="car9" route="7" depart="30" departLane = "0" departSpeed="11.180000"/>
	<vehicle id="car_385_R" type="car7" route="2" depart="33" departLane = "0" departSpeed="11.180000"/>
	<vehicle id="car_2_SR" type="car9" route="0" depart="34" departLane = "0" departSpeed="11.180000"/>
	<vehicle id="car_1437_RS" type="car6" route="1" depart="34" departLane = "0" departSpeed="11.180000"/>
	<vehicle id="car_1089_RR" type="car5" route="7" depart="35" departLane = "0" departSpeed="11.180000"/>
	<vehicle id="car_1090_L" type="car6" route="7" depart="35" departLane = "0" departSpeed="11.180000"/>
	<vehicle id="car_1438_L" type="car9" route="1" depart="37" departLane = "0" departSpeed="11.180000"/>
	<vehicle id="car_2155_SR" type="car9" route="4" depart="38" departLane = "0" departSpeed="11.180000"/>
	<vehicle id="car_2553_R" type="car5" route="6" depart="38" departLane = "0" departSpeed="11.180000"/>
	<vehicle id="car_1091_SL" type="car9" route="7" depart="39" departLane = "0" departSpeed="11.180000"/>
	<vehicle id="car_1092_L" type="car7" route="7" depart="47" departLane = "0" departSpeed="11.180000"/>
	<vehicle id="car_3_R" type="car8" route="0" depart="48" departLane = "0" departSpeed="11.180000"/>
	<vehicle id="car_1439_RR" type="car6" route="1" depart="50" departLane = "0" departSpeed="11.180000"/>
	<vehicle id="car_1806_SS" type="car5" route="3" depart="51" departLane = "0" departSpeed="11.180000"/>
	<vehicle id="car_2156_R" type="car9" route="4" depart="56" departLane = "0" departSpeed="11.180000"/>
	<vehicle id="car_1440_RLR" type="car6" route="1" depart="59" departLane = "0" departSpeed="11.180000"/>
	<vehicle id="car_2554_SS" type="car6" route="6" depart="59" departLane = "0" departSpeed="11.180000"/>
	<vehicle id="car_1807_L" type="car5" route="3" depart="60" departLane = "0" departSpeed="11.180000"/>
	<vehicle id="car_738_SS" type="car8" route="5" depart="60" departLane = "0" departSpeed="11.180000"/>
	<vehicle id="car_1808_RLR" type="car5" route="3" depart="61" departLane = "0" departSpeed="11.180000"/>
	<vehicle id="car_2157_SS" type="car8" route="4" depart="62" departLane = "0" departSpeed="11.180000"/>
	<vehicle id="car_386_R" type="car8" route="2" depart="62" departLane = "0" departSpeed="11.180000"/>
	<vehicle id="car_1093_RR" type="car6" route="7" depart="62" departLane = "0" departSpeed="11.180000"/>
	<vehicle id="car_739_L" type="car7" route="5" depart="65" departLane = "0" departSpeed="11.180000"/>
	<vehicle id="car_1094_RS" type="car5" route="7" depart="65" departLane = "0" departSpeed="11.180000"/>
	<vehicle id="car_740_SRL" type="car9" route="5" depart="66" departLane = "0" departSpeed="11.180000"/>
	<vehicle id="car_741_SS" type="car5" route="5" depart="68" departLane = "0" departSpeed="11.180000"/>
	<vehicle id="car_742_SS" type="car8" route="5" depart="69" departLane = "0" departSpeed="11.180000"/>
	<vehicle id="car_1441_RR" type="car5" route="1" depart="69" departLane = "0" departSpeed="11.180000"/>
	<vehicle id="car_743_RS" type="car6" route="5" depart="69" departLane = "0" departSpeed="11.180000"/>
	<vehicle id="car_1809_L" type="car9" route="3" depart="71" departLane = "0" departSpeed="11.180000"/>
	<vehicle id="car_1442_SL" type="car5" route="1" depart="72" departLane = "0" departSpeed="11.180000"/>
	<vehicle id="car_4_LL" type="car9" route="0" depart="72" departLane = "0" departSpeed="11.180000"/>
	<vehicle id="car_387_SS" type="car8" route="2" depart="74" departLane = "0" departSpeed="11.180000"/>
	<vehicle id="car_744_L" type="car6" route="5" depart="74" departLane = "0" departSpeed="11.180000"/>
	<vehicle id="car_1095_SL" type="car5" route="7" depart="75" departLane = "0" departSpeed="11.180000"/>
	<vehicle id="car_2555_SS" type="car8" route="6" depart="76" departLane = "0" departSpeed="11.180000"/>
	<vehicle id="car_5_LL" type="car8" route="0" depart="76" departLane = "0" departSpeed="11.180000"/>
	<vehicle id="car_2158_SLR" type="car8" route="4" depart="78" departLane = "0" departSpeed="11.180000"/>
	<vehicle id="car_1443_RR" type="car9" route="1" depart="82" departLane = "0" departSpeed="11.180000"/>
	<vehicle id="car_6_SS" type="car5" route="0" depart="82" departLane = "0" departSpeed="11.180000"/>
	<vehicle id="car_388_R" type="car8" route="2" depart="82" departLane = "0" departSpeed="11.180000"/>
	<vehicle id="car_1810_RS" type="car9" route="3" depart="82" departLane = "0" departSpeed="11.180000"/>
	<vehicle id="car_745_SL" type="car5" route="5" depart="84" departLane = "0" departSpeed="11.180000"/>
	<vehicle id="car_2556_LL" type="car5" route="6" depart="84" departLane = "0" departSpeed="11.180000"/>
	<vehicle id="car_1444_SL" type="car7" route="1" depart="85" departLane = "0" departSpeed="11.180000"/>
	<vehicle id="car_2159_R" type="car8" route="4" depart="86" departLane = "0" departSpeed="11.180000"/>
	<vehicle id="car_2160_SLR" type="car9" route="4" depart="87" departLane = "0" departSpeed="11.180000"/>
	<vehicle id="car_1811_SRS" type="car8" route="3" depart="88" departLane = "0" departSpeed="11.180000"/>
	<vehicle id="car_746_SS" type="car8" route="5" depart="88" departLane = "0" departSpeed="11.180000"/>
	<vehicle id="car_389_R" type="car5" route="2" depart="89" departLane = "0" departSpeed="11.180000"/>
	<vehicle id="car_2557_R" type="car5" route="6" depart="94" departLane = "0" departSpeed="11.180000"/>
	<vehicle id="car_747_SRS" type="car6" route="5" depart="94" departLane = "0" departSpeed="11.180000"/>
	<vehicle id="car_2161_R" type="car9" route="4" depart="96" departLane = "0" departSpeed="11.180000"/>
	<vehicle id="car_1096_SRS" type="car8" route="7" depart="97" departLane = "0" departSpeed="11.180000"/>
	<vehicle id="car_1812_L" type="car9" route="3" depart="102" departLane = "0" departSpeed="11.180000"/>
	<vehicle id="car_2162_SR" type="car7" route="4" depart="103" departLane = "0" departSpeed="11.180000"/>
	<vehicle id="car_1813_L" type="car7" route="3" depart="104" departLane = "0" departSpeed="11.180000"/>
	<vehicle id="car_748_RR" type="car9" route="5" depart="105" departLane = "0" departSpeed="11.180000"/>
	<vehicle id="car_749_RLS" type="car6" route="5" depart="106" departLane = "0" departSpeed="11.180000"/>
	<vehicle id="car_2558_LS" type="car6" route="6" depart="106" departLane = "0" departSpeed="11.180000"/>
	<vehicle id="car_1097_SS" type="car9" route="7" depart="107" departLane = "0" departSpeed="11.180000"/>
	<vehicle id="car_7_SLR" type="car9" route="0" depart="107" departLane = "0" departSpeed="11.180000"/>
	<vehicle id="car_2163_R" type="car9" route="4" depart="107" departLane = "0" departSpeed="11.180000"/>
	<vehicle id="car_750_L" type="car9" route="5" depart="108" departLane = "0" departSpeed="11.180000"/>
	<vehicle id="car_2164_R" type="car6" route="4" depart="109" departLane = "0" departSpeed="11.180000"/>
	<vehicle id="car_1098_RR" type="car8" route="7" depart="111" departLane = "0" departSpeed="11.180000"/>
	<vehicle id="car_1445_RR" type="car7" route="1" depart="113" departLane = "0" departSpeed="11.180000"/>
	<vehicle id="car_1814_RR" type="car5" route="3" depart="113" departLane = "0" departSpeed="11.180000"/>
	<vehicle id="car_390_LS" type="car5" route="2" depart="114" departLane = "0" departSpeed="11.180000"/>
	<vehicle id="car_1446_SL" type="car5" route="1" depart="118" departLane = "0" departSpeed="11.180000"/>
	<vehicle id="car_2165_SR" type="car9" route="4" depart="119" departLane = "0" departSpeed="11.180000"/>
	<vehicle id="car_391_SS" type="car6" route="2" depart="120" departLane = "0" departSpeed="11.180000"/>
	<vehicle id="car_1099_L" type="car9" route="7" depart="122" departLane = "0" departSpeed="11.180000"/>
	<vehicle id="car_1447_L" type="car7" route="1" depart="122" departLane = "0" departSpeed="11.180000"/>
	<vehicle id="car_8_R" type="car7" route="0" depart="123" departLane = "0" departSpeed="11.180000"/>
	<vehicle id="car_1448_SL" type="car9" route="1" depart="124" departLane = "0" departSpeed="11.180000"/>
	<vehicle id="car_751_RS" type="car7" route="5" depart="124" departLane = "0" departSpeed="11.180000"/>
	<vehicle id="car_1815_SL" type="car7" route="3" depart="126" departLane = "0" departSpeed="11.180000"/>
	<vehicle id="car_1816_L" type="car6" route="3" depart="127" departLane = "0" departSpeed="11.180000"/>
	<vehicle id="car_1100_SRL" type="car6" route="7" depart="128" departLane = "0" departSpeed="11.180000"/>
	<vehicle id="car_2559_R" type="car5" route="6" depart="128" departLane = "0" departSpeed="11.180000"/>
	<vehicle id="car_392_LRL" type="car6" route="2" depart="128" departLane = "0" departSpeed="11.180000"/>
	<vehicle id="car_393_LS" type="car7" route="2" depart="128" departLane = "0" departSpeed="11.180000"/>
	<vehicle id="car_1449_L" type="car9" route="1" depart="128" departLane = "0" departSpeed="11.180000"/>
	<vehicle id="car_752_RR" type="car6" route="5" depart="130" departLane = "0" departSpeed="11.180000"/>
	<vehicle id="car_2166_LRL" type="car5" route="4" depart="132" departLane = "0" departSpeed="11.180000"/>
	<vehicle id="car_753_L" type="car6" route="5" depart="133" departLane = "0" departSpeed="11.180000"/>
	<vehicle id="car_2560_R" type="car8" route="6" depart="134" departLane = "0" departSpeed="11.180000"/>
	<vehicle id="car_394_SR" type="car6" route="2" depart="134" departLane = "0" departSpeed="11.180000"/>
	<vehicle id="car_754_L" type="car6" route="5" depart="134" departLane = "0" departSpeed="11.180000"/>
	<vehicle id="car_1101_SL" type="car5" route="7" depart="135" departLane = "0" departSpeed="11.180000"/>
	<vehicle id="car_9_LL" type="car6" route="0" depart="136" departLane = "0" departSpeed="11.180000"/>
	<vehicle id="car_10_R" type="car7" route="0" depart="136" departLane = "0" departSpeed="11.180000"/>
	<vehicle id="car_395_R" type="car8" route="2" depart="137" departLane = "0" departSpeed="11.180000"/>
	<vehicle id="car_2167_SR" type="car6" route="4" depart="138" departLane = "0" departSpeed="11.180000"/>
	<vehicle id="car_755_L" type="car9" route="5" depart="138" departLane = "0" departSpeed="11.180000"/>
	<vehicle id="car_1102_RLS" type="car8" route="7" depart="139" departLane = "0" departSpeed="11.180000"/>
	<vehicle id="car_2561_LS" type="car6" route="6" depart="140" departLane = "0" departSpeed="11.180000"/>
	<vehicle id="car_756_SRS" type="car8" route="5" depart="140" departLane = "0" departSpeed="11.180000"/>
	<vehicle id="car_396_LL" type="car7" route="2" depart="141" departLane = "0" departSpeed="11.180000"/>
	<vehicle id="car_397_LL" type="car5" route="2" depart="142" departLane = "0" departSpeed="11.180000"/>
	<vehicle id="car_1817_RR" type="car8" route="3" depart="143" departLane = "0" departSpeed="11.180000"/>
	<vehicle id="car_1818_L" type="car5" route="3" depart="143" departLane = "0" departSpeed="11.180000"/>
	<vehicle id="car_11_LL" type="car6" route="0" depart="144" departLane = "0" departSpeed="11.180000"/>
	<vehicle id="car_1103_SL" type="car5" route="7" depart="145" departLane = "0" departSpeed="11.180000"/>
	<vehicle id="car_1104_RR" type="car6" route="7" depart="145" departLane = "0" departSpeed="11.180000"/>
	<vehicle id="car_1450_RR" type="car6" route="1" depart="146" departLane = "0" departSpeed="11.180000"/>
	<vehicle id="car_757_L" type="car6" route="5" depart="147" departLane = "0" departSpeed="11.180000"/>
	<vehicle id="car_2168_R" type="car7" route="4" depart="147" departLane = "0" departSpeed="11.180000"/>
	<vehicle id="car_12_R" type="car5" route="0" depart="150" departLane = "0" departSpeed="11.180000"/>
	<vehicle id="car_1105_SS" type="car9" route="7" depart="156" departLane = "0" departSpeed="11.180000"/>
	<vehicle id="car_398_LS" type="car7" route="2" depart="157" departLane = "0" departSpeed="11.180000"/>
	<vehicle id="car_13_R" type="car9" route="0" depart="157" departLane = "0" departSpeed="11.180000"/>
	<vehicle id="car_399_LL" type="car6" route="2" depart="159" departLane = "0" departSpeed="11.180000"/>
	<vehicle id="car_1451_RR" type="car7" route="1" depart="161" departLane = "0" departSpeed="11.180000"/>
	<vehicle id="car_1452_SS" type="car9" route="1" depart="161" departLane = "0" departSpeed="11.180000"/>
	<vehicle id="car_1106_L" type="car7" route="7" depart="163" departLane = "0" departSpeed="11.180000"/>
	<vehicle id="car_2169_R" type="car8" route="4" depart="164" departLane = "0" departSpeed="11.180000"/>
	<vehicle id="car_14_SLS" type="car8" route="0" depart="165" departLane = "0" departSpeed="11.180000"/>
	<vehicle id="car_2562_R" type="car8" route="6" depart="167" departLane = "0" departSpeed="11.180000"/>
	<vehicle id="car_758_RS" type="car9" route="5" depart="169" departLane = "0" departSpeed="11.180000"/>
	<vehicle id="car_1453_L" type="car8" route="1" depart="170" departLane = "0" departSpeed="11.180000"/>
	<vehicle id="car_2563_LRS" type="car8" route="6" depart="170" departLane = "0" departSpeed="11.180000"/>
	<vehicle id="car_2170_SS" type="car8" route="4" depart="170" departLane = "0" departSpeed="11.180000"/>
	<vehicle id="car_759_SL" type="car7" route="5" depart="170" departLane = "0" departSpeed="11.180000"/>
	<vehicle id="car_760_SL" type="car5" route="5" depart="171" departLane = "0" departSpeed="11.180000"/>
	<vehicle id="car_1819_SL" type="car9" route="3" depart="172" departLane = "0" departSpeed="11.180000"/>
	<vehicle id="car_1454_RR" type="car8" route="1" depart="174" departLane = "0" departSpeed="11.180000"/>
	<vehicle id="car_1455_L" type="car7" route="1" depart="174" departLane = "0" departSpeed="11.180000"/>
	<vehicle id="car_1820_L" type="car6" route="3" depart="174" departLane = "0" departSpeed="11.180000"/>
	<vehicle id="car_2564_SS" type="car5" route="6" depart="175" departLane = "0" departSpeed="11.180000"/>
	<vehicle id="car_1107_L" type="car6" route="7" depart="175" departLane = "0" departSpeed="11.180000"/>
	<vehicle id="car_1821_RS" type="car8" route="3" depart="175" departLane = "0" departSpeed="11.180000"/>
	<vehicle id="car_2565_R" type="car8" route="6" depart="180" departLane = "0" departSpeed="11.180000"/>
	<vehicle id="car_761_RS" type="car5" route="5" depart="180" departLane = "0" departSpeed="11.180000"/>
	<vehicle id="car_1108_RR" type="car7" route="7" depart="181" departLane = "0" departSpeed="11.180000"/>
	<vehicle id="car_762_L" type="car8" route="5" depart="183" departLane = "0" departSpeed="11.180000"/>
	<vehicle id="car_1822_L" type="car9" route="3" depart="191" departLane = "0" departSpeed="11.180000"/>
	<vehicle id="car_400_LS" type="car9" route="2" depart="191" departLane = "0" departSpeed="11.180000"/>
	<vehicle id="car_1109_SL" type="car9" route="7" depart="194" departLane = "0" departSpeed="11.180000"/>
	<vehicle id="car_2171_LL" type="car7" route="4" depart="195" departLane = "0" departSpeed="11.180000"/>
	<vehicle id="car_2172_R" type="car7" route="4" depart="195" departLane = "0" departSpeed="11.180000"/>
	<vehicle id="car_1456_L" type="car8" route="1" depart="196" departLane = "0" departSpeed="11.180000"/>
	<vehicle id="car_763_SS" type="car8" route="5" depart="197" departLane = "0" departSpeed="11.180000"/>
	<vehicle id="car_1823_SL" type="car8" route="3" depart="198" departLane = "0" departSpeed="11.180000"/>
	<vehicle id="car_15_SS" type="car8" route="0" depart="198" departLane = "0" departSpeed="11.180000"/>
	<vehicle id="car_2566_SLS" type="car9" route="6" depart="202" departLane = "0" departSpeed="11.180000"/>
	<vehicle id="car_1457_SL" type="car5" route="1" depart="203" departLane = "0" departSpeed="11.180000"/>
	<vehicle id="car_401_LL" type="car5" route="2" depart="204" departLane = "0" departSpeed="11.180000"/>
	<vehicle id="car_2567_R" type="car8" route="6" depart="204" departLane = "0" departSpeed="11.180000"/>
	<vehicle id="car_1458_L" type="car5" route="1" depart="205" departLane = "0" departSpeed="11.180000"/>
	<vehicle id="car_1110_SS" type="car7" route="7" depart="206" departLane = "0" departSpeed="11.180000"/>
	<vehicle id="car_16_SR" type="car6" route="0" depart="207" departLane = "0" departSpeed="11.180000"/>
	<vehicle id="car_1824_SS" type="car7" route="3" depart="208" departLane = "0" departSpeed="11.180000"/>
	<vehicle id="car_1111_SL" type="car5" route="7" depart="209" departLane = "0" departSpeed="11.180000"/>
	<vehicle id="car_17_SS" type="car5" route="0" depart="210" departLane = "0" departSpeed="11.180000"/>
	<vehicle id="car_1459_L" type="car8" route="1" depart="211" departLane = "0" departSpeed="11.180000"/>
	<vehicle id="car_402_SS" type="car7" route="2" depart="213" departLane = "0" departSpeed="11.180000"/>
	<vehicle id="car_1112_L" type="car7" route="7" depart="213" departLane = "0" departSpeed="11.180000"/>
	<vehicle id="car_1113_L" type="car6" route="7" depart="214" departLane = "0" departSpeed="11.180000"/>
	<vehicle id="car_18_LL" type="car5" route="0" depart="216" departLane = "0" departSpeed="11.180000"/>
	<vehicle id="car_2173_LRS" type="car7" route="4" depart="219" departLane = "0" departSpeed="11.180000"/>
	<vehicle id="car_764_RLR" type="car5" route="5" depart="219" departLane = "0" departSpeed="11.180000"/>
	<vehicle id="car_2174_R" type="car7" route="4" depart="220" departLane = "0" departSpeed="11.180000"/>
	<vehicle id="car_1460_SS" type="car7" route="1" depart="223" departLane = "0" departSpeed="11.180000"/>
	<vehicle id="car_1114_SS" type="car5" route="7" depart="224" departLane = "0" departSpeed="11.180000"/>
	<vehicle id="car_1115_RS" type="car9" route="7" depart="226" departLane = "0" departSpeed="11.180000"/>
	<vehicle id="car_1116_RS" type="car6" route="7" depart="226" departLane = "0" departSpeed="11.180000"/>
	<vehicle id="car_765_SL" type="car9" route="5" depart="227" departLane = "0" departSpeed="11.180000"/>
	<vehicle id="car_2568_R" type="car6" route="6" depart="227" departLane = "0" departSpeed="11.180000"/>
	<vehicle id="car_2175_SR" type="car5" route="4" depart="228" departLane = "0" departSpeed="11.180000"/>
	<vehicle id="car_1461_RR" type="car7" route="1" depart="229" departLane = "0" departSpeed="11.180000"/>
	<vehicle id="car_1825_RLS" type="car9" route="3" depart="235" departLane = "0" departSpeed="11.180000"/>
	<vehicle id="car_403_R" type="car7" route="2" depart="236" departLane = "0" departSpeed="11.180000"/>
	<vehicle id="car_2176_R" type="car9" route="4" depart="238" departLane = "0" departSpeed="11.180000"/>
	<vehicle id="car_19_LL" type="car9" route="0" depart="242" departLane = "0" departSpeed="11.180000"/>
	<vehicle id="car_404_LL" type="car6" route="2" depart="242" departLane = "0" departSpeed="11.180000"/>
	<vehicle id="car_766_RS" type="car8" route="5" depart="247" departLane = "0" departSpeed="11.180000"/>
	<vehicle id="car_20_LRL" type="car6" route="0" depart="250" departLane = "0" departSpeed="11.180000"/>
	<vehicle id="car_1117_RS" type="car8" route="7" depart="250" departLane = "0" departSpeed="11.180000"/>
	<vehicle id="car_405_R" type="car5" route="2" depart="250" departLane = "0" departSpeed="11.180000"/>
	<vehicle id="car_406_LRL" type="car7" route="2" depart="252" departLane = "0" departSpeed="11.180000"/>
	<vehicle id="car_2177_LL" type="car8" route="4" depart="252" departLane = "0" departSpeed="11.180000"/>
	<vehicle id="car_1118_RS" type="car8" route="7" depart="254" departLane = "0" departSpeed="11.180000"/>
	<vehicle id="car_1119_RR" type="car5" route="7" depart="255" departLane = "0" departSpeed="11.180000"/>
	<vehicle id="car_2178_R" type="car8" route="4" depart="261" departLane = "0" departSpeed="11.180000"/>
	<vehicle id="car_1462_L" type="car9" route="1" depart="262" departLane = "0" departSpeed="11.180000"/>
	<vehicle id="car_767_SRS" type="car9" route="5" depart="263" departLane = "0" departSpeed="11.180000"/>
	<vehicle id="car_1463_SS" type="car9" route="1" depart="268" departLane = "0" departSpeed="11.180000"/>
	<vehicle id="car_21_SLS" type="car9" route="0" depart="268" departLane = "0" departSpeed="11.180000"/>
	<vehicle id="car_768_RLS" type="car9" route="5" depart="270" departLane = "0" departSpeed="11.180000"/>
	<vehicle id="car_769_RR" type="car8" route="5" depart="271" departLane = "0" departSpeed="11.180000"/>
	<vehicle id="car_407_SS" type="car8" route="2" depart="271" departLane = "0" departSpeed="11.180000"/>
	<vehicle id="car_1826_L" type="car5" route="3" depart="274" departLane = "0" departSpeed="11.180000"/>
	<vehicle id="car_770_SL" type="car7" route="5" depart="274" departLane = "0" departSpeed="11.180000"/>
	<vehicle id="car_22_LL" type="car8" route="0" depart="274" departLane = "0" departSpeed="11.180000"/>
	<vehicle id="car_1827_L" type="car6" route="3" depart="280" departLane = "0" departSpeed="11.180000"/>
	<vehicle id="car_1120_RLS" type="car7" route="7" depart="282" departLane = "0" departSpeed="11.180000"/>
	<vehicle id="car_771_SS" type="car8" route="5" depart="283" departLane = "0" departSpeed="11.180000"/>
	<vehicle id="car_2179_SS" type="car8" route="4" depart="286" departLane = "0" departSpeed="11.180000"/>
	<vehicle id="car_2569_R" type="car8" route="6" depart="287" departLane = "0" departSpeed="11.180000"/>
	<vehicle id="car_1828_SRL" type="car8" route="3" depart="289" departLane = "0" departSpeed="11.180000"/>
	<vehicle id="car_23_SS" type="car5" route="0" depart="290" departLane = "0" departSpeed="11.180000"/>
	<vehicle id="car_772_RS" type="car6" route="5" depart="293" departLane = "0" departSpeed="11.180000"/>
	<vehicle id="car_1464_L" type="car5" route="1" depart="294" departLane = "0" departSpeed="11.180000"/>
	<vehicle id="car_1829_SL" type="car5" route="3" depart="294" departLane = "0" departSpeed="11.180000"/>
	<vehicle id="car_2180_SS" type="car8" route="4" depart="297" departLane = "0" departSpeed="11.180000"/>
	<vehicle id="car_24_R" type="car9" route="0" depart="300" departLane = "0" departSpeed="11.180000"/>
	<vehicle id="car_1121_L" type="car9" route="7" depart="300" departLane = "0" departSpeed="11.180000"/>
	<vehicle id="car_773_RS" type="car5" route="5" depart="303" departLane = "0" departSpeed="11.180000"/>
	<vehicle id="car_2570_R" type="car5" route="6" depart="303" departLane = "0" departSpeed="11.180000"/>
	<vehicle id="car_2571_LRL" type="car9" route="6" depart="307" departLane = "0" departSpeed="11.180000"/>
	<vehicle id="car_2572_SR" type="car9" route="6" depart="310" departLane = "0" departSpeed="11.180000"/>
	<vehicle id="car_1122_SRS" type="car9" route="7" depart="312" departLane = "0" departSpeed="11.180000"/>
	<vehicle id="car_25_R" type="car5" route="0" depart="313" departLane = "0" departSpeed="11.180000"/>
	<vehicle id="car_1123_RR" type="car6" route="7" depart="315" departLane = "0" departSpeed="11.180000"/>
	<vehicle id="car_408_SLR" type="car9" route="2" depart="316" departLane = "0" departSpeed="11.180000"/>
	<vehicle id="car_1830_RR" type="car8" route="3" depart="318" departLane = "0" departSpeed="11.180000"/>
	<vehicle id="car_2181_SS" type="car7" route="4" depart="318" departLane = "0" departSpeed="11.180000"/>
	<vehicle id="car_1124_SS" type="car9" route="7" depart="319" departLane = "0" departSpeed="11.180000"/>
	<vehicle id="car_2182_LL" type="car9" route="4" depart="319" departLane = "0" departSpeed="11.180000"/>
	<vehicle id="car_1125_RLR" type="car9" route="7" depart="320" departLane = "0" departSpeed="11.180000"/>
	<vehicle id="car_1126_RR" type="car9" route="7" depart="320" departLane = "0" departSpeed="11.180000"/>
	<vehicle id="car_1465_SRL" type="car7" route="1" depart="321" departLane = "0" departSpeed="11.180000"/>
	<vehicle id="car_774_RR" type="car6" route="5" depart="321" departLane = "0" departSpeed="11.180000"/>
	<vehicle id="car_409_SS" type="car6" route="2" depart="324" departLane = "0" departSpeed="11.180000"/>
	<vehicle id="car_1466_L" type="car6" route="1" depart="325" departLane = "0" departSpeed="11.180000"/>
	<vehicle id="car_1831_SL" type="car9" route="3" depart="327" departLane = "0" departSpeed="11.180000"/>
	<vehicle id="car_775_SS" type="car7" route="5" depart="329" departLane = "0" departSpeed="11.180000"/>
	<vehicle id="car_2573_SS" type="car9" route="6" depart="329" departLane = "0" departSpeed="11.180000"/>
	<vehicle id="car_1467_L" type="car5" route="1" depart="329" departLane = "0" departSpeed="11.180000"/>
	<vehicle id="car_26_R" type="car6" route="0" depart="329" departLane = "0" departSpeed="11.180000"/>
	<vehicle id="car_1127_L" type="car7" route="7" depart="331" departLane = "0" departSpeed="11.180000"/>
	<vehicle id="car_1468_L" type="car9" route="1" depart="333" departLane = "0" departSpeed="11.180000"/>
	<vehicle id="car_2574_R" type="car8" route="6" depart="333" departLane = "0" departSpeed="11.180000"/>
	<vehicle id="car_410_SR" type="car9" route="2" depart="335" departLane = "0" departSpeed="11.180000"/>
	<vehicle id="car_1128_RR" type="car8" route="7" depart="335" departLane = "0" departSpeed="11.180000"/>
	<vehicle id="car_1129_RR" type="car9" route="7" depart="338" departLane = "0" departSpeed="11.180000"/>
	<vehicle id="car_27_SLR" type="car9" route="0" depart="338" departLane = "0" departSpeed="11.180000"/>
	<vehicle id="car_1130_SRL" type="car8" route="7" depart="338" departLane = "0" departSpeed="11.180000"/>
	<vehicle id="car_776_RLR" type="car9" route="5" depart="339" departLane = "0" departSpeed="11.180000"/>
	<vehicle id="car_2183_R" type="car8" route="4" depart="340" departLane = "0" departSpeed="11.180000"/>
	<vehicle id="car_1832_L" type="car6" route="3" depart="340" departLane = "0" departSpeed="11.180000"/>
	<vehicle id="car_1469_L" type="car9" route="1" depart="341" departLane = "0" departSpeed="11.180000"/>
	<vehicle id="car_777_SL" type="car7" route="5" depart="343" departLane = "0" departSpeed="11.180000"/>
	<vehicle id="car_2575_LL" type="car9" route="6" depart="344" departLane = "0" departSpeed="11.180000"/>
	<vehicle id="car_778_L" type="car8" route="5" depart="344" departLane = "0" departSpeed="11.180000"/>
	<vehicle id="car_779_RR" type="car7" route="5" depart="344" departLane = "0" departSpeed="11.180000"/>
	<vehicle id="car_1470_RS" type="car8" route="1" depart="346" departLane = "0" departSpeed="11.180000"/>
	<vehicle id="car_1131_L" type="car9" route="7" depart="347" departLane = "0" departSpeed="11.180000"/>
	<vehicle id="car_28_SS" type="car8" route="0" depart="348" departLane = "0" departSpeed="11.180000"/>
	<vehicle id="car_1132_RS" type="car5" route="7" depart="348" departLane = "0" departSpeed="11.180000"/>
	<vehicle id="car_411_LS" type="car8" route="2" depart="349" departLane = "0" departSpeed="11.180000"/>
	<vehicle id="car_1833_L" type="car6" route="3" depart="349" departLane = "0" departSpeed="11.180000"/>
	<vehicle id="car_2184_LS" type="car7" route="4" depart="350" departLane = "0" departSpeed="11.180000"/>