<routes>

	<vType id="car5" accel="100.0" decel="100.0" sigma="0.0" length="5" minGap="5.000000" maxSpeed="11.180000" tau="0.100000" carFollowModel="CACC" color="255,255,255"/>
	<vType id="car6" accel="100.0" decel="100.0" sigma="0.0" length="6" minGap="5.000000" maxSpeed="11.180000" tau="0.100000" carFollowModel="CACC" color="255,255,255"/>
	<vType id="car7" accel="100.0" decel="100.0" sigma="0.0" length="7" minGap="5.000000" maxSpeed="11.180000" tau="0.100000" carFollowModel="CACC" color="255,255,255"/>
	<vType id="car8" accel="100.0" decel="100.0" sigma="0.0" length="8" minGap="5.000000" maxSpeed="11.180000" tau="0.100000" carFollowModel="CACC" color="255,255,255"/>
	<vType id="car9" accel="100.0" decel="100.0" sigma="0.0" length="9" minGap="5.000000" maxSpeed="11.180000" tau="0.100000" carFollowModel="CACC" color="255,255,255"/>

	<route id="0" edges=" 001_001_1"/>
	<route id="2" edges=" 001_002_2"/>
	<route id="5" edges=" 002_001_3"/>
	<route id="7" edges=" 001_001_4"/>
	<route id="1" edges=" 001_002_1"/>
	<route id="3" edges=" 002_002_2"/>
	<route id="4" edges=" 002_002_3"/>
	<route id="6" edges=" 002_001_4"/>

	<vehicle id="car_0" type="car7" route="1" depart="0" departLane = "2" departSpeed="11.180000"/>
	<vehicle id="car_1" type="car6" route="6" depart="0" departLane = "2" departSpeed="11.180000"/>
	<vehicle id="car_2" type="car6" route="6" depart="2" departLane = "0" departSpeed="11.180000"/>
	<vehicle id="car_3" type="car6" route="1" depart="3" departLane = "1" departSpeed="11.180000"/>
	<vehicle id="car_4" type="car5" route="3" depart="4" departLane = "1" departSpeed="11.180000"/>
	<vehicle id="car_5" type="car7" route="4" depart="4" departLane = "2" departSpeed="11.180000"/>
	<vehicle id="car_6" type="car7" route="2" depart="5" departLane = "0" departSpeed="11.180000"/>
	<vehicle id="car_7" type="car7" route="7" depart="5" departLane = "1" departSpeed="11.180000"/>
	<vehicle id="car_8" type="car6" route="1" depart="6" departLane = "2" departSpeed="11.180000"/>
	<vehicle id="car_9" type="car6" route="4" depart="6" departLane = "2" departSpeed="11.180000"/>
	<vehicle id="car_10" type="car8" route="5" depart="7" departLane = "0" departSpeed="11.180000"/>
	<vehicle id="car_11" type="car8" route="4" depart="7" departLane = "0" departSpeed="11.180000"/>
	<vehicle id="car_12" type="car8" route="6" depart="7" departLane = "2" departSpeed="11.180000"/>
	<vehicle id="car_13" type="car9" route="4" depart="9" departLane = "0" departSpeed="11.180000"/>
	<vehicle id="car_14" type="car5" route="2" depart="10" departLane = "0" departSpeed="11.180000"/>
	<vehicle id="car_15" type="car7" route="0" depart="11" departLane = "2" departSpeed="11.180000"/>
	<vehicle id="car_16" type="car5" route="5" depart="12" departLane = "1" departSpeed="11.180000"/>
	<vehicle id="car_17" type="car8" route="1" depart="12" departLane = "0" departSpeed="11.180000"/>
	<vehicle id="car_18" type="car9" route="4" depart="13" departLane = "2" departSpeed="11.180000"/>
	<vehicle id="car_19" type="car8" route="6" depart="13" departLane = "1" departSpeed="11.180000"/>
	<vehicle id="car_20" type="car8" route="6" depart="14" departLane = "1" departSpeed="11.180000"/>
	<vehicle id="car_21" type="car7" route="3" depart="15" departLane = "1" departSpeed="11.180000"/>
	<vehicle id="car_22" type="car5" route="6" depart="15" departLane = "1" departSpeed="11.180000"/>
	<vehicle id="car_23" type="car6" route="0" depart="16" departLane = "1" departSpeed="11.180000"/>
	<vehicle id="car_24" type="car8" route="2" depart="16" departLane = "1" departSpeed="11.180000"/>
	<vehicle id="car_25" type="car9" route="5" depart="16" departLane = "1" departSpeed="11.180000"/>
	<vehicle id="car_26" type="car5" route="7" depart="19" departLane = "2" departSpeed="11.180000"/>
	<vehicle id="car_27" type="car6" route="0" depart="20" departLane = "0" departSpeed="11.180000"/>
	<vehicle id="car_28" type="car6" route="0" depart="21" departLane = "0" departSpeed="11.180000"/>
	<vehicle id="car_29" type="car7" route="4" depart="24" departLane = "1" departSpeed="11.180000"/>
	<vehicle id="car_30" type="car8" route="5" depart="25" departLane = "0" departSpeed="11.180000"/>
	<vehicle id="car_31" type="car5" route="7" depart="25" departLane = "2" departSpeed="11.180000"/>
	<vehicle id="car_32" type="car9" route="4" depart="25" departLane = "2" departSpeed="11.180000"/>
	<vehicle id="car_33" type="car8" route="1" depart="27" departLane = "0" departSpeed="11.180000"/>
	<vehicle id="car_34" type="car5" route="1" depart="29" departLane = "2" departSpeed="11.180000"/>
	<vehicle id="car_35" type="car5" route="3" depart="29" departLane = "0" departSpeed="11.180000"/>
	<vehicle id="car_36" type="car9" route="0" depart="31" departLane = "1" departSpeed="11.180000"/>
	<vehicle id="car_37" type="car6" route="4" depart="31" departLane = "2" departSpeed="11.180000"/>
	<vehicle id="car_38" type="car9" route="6" depart="32" departLane = "1" departSpeed="11.180000"/>
	<vehicle id="car_39" type="car7" route="1" depart="33" departLane = "2" departSpeed="11.180000"/>
	<vehicle id="car_40" type="car5" route="4" depart="33" departLane = "0" departSpeed="11.180000"/>
	<vehicle id="car_41" type="car9" route="4" depart="35" departLane = "1" departSpeed="11.180000"/>
	<vehicle id="car_42" type="car5" route="5" depart="36" departLane = "0" departSpeed="11.180000"/>
	<vehicle id="car_43" type="car7" route="4" depart="36" departLane = "0" departSpeed="11.180000"/>
	<vehicle id="car_44" type="car8" route="0" depart="38" departLane = "0" departSpeed="11.180000"/>
	<vehicle id="car_45" type="car8" route="3" depart="38" departLane = "2" departSpeed="11.180000"/>
	<vehicle id="car_46" type="car7" route="4" depart="38" departLane = "1" departSpeed="11.180000"/>
	<vehicle id="car_47" type="car9" route="3" depart="39" departLane = "0" departSpeed="11.180000"/>
	<vehicle id="car_48" type="car9" route="0" depart="41" departLane = "1" departSpeed="11.180000"/>
	<vehicle id="car_49" type="car7" route="4" depart="41" departLane = "1" departSpeed="11.180000"/>
	<vehicle id="car_50" type="car6" route="7" depart="42" departLane = "0" departSpeed="11.180000"/>
	<vehicle id="car_51" type="car7" route="4" depart="45" departLane = "2" departSpeed="11.180000"/>
	<vehicle id="car_52" type="car7" route="6" depart="45" departLane = "1" departSpeed="11.180000"/>
	<vehicle id="car_53" type="car6" route="4" depart="46" departLane = "2" departSpeed="11.180000"/>
	<vehicle id="car_54" type="car9" route="7" depart="47" departLane = "1" departSpeed="11.180000"/>
	<vehicle id="car_55" type="car7" route="4" depart="49" departLane = "1" departSpeed="11.180000"/>
	<vehicle id="car_56" type="car6" route="0" depart="50" departLane = "2" departSpeed="11.180000"/>
	<vehicle id="car_57" type="car8" route="5" depart="50" departLane = "2" departSpeed="11.180000"/>
	<vehicle id="car_58" type="car8" route="3" depart="50" departLane = "0" departSpeed="11.180000"/>
	<vehicle id="car_59" type="car8" route="6" depart="50" departLane = "2" departSpeed="11.180000"/>
	<vehicle id="car_60" type="car7" route="0" depart="53" departLane = "0" departSpeed="11.180000"/>
	<vehicle id="car_61" type="car5" route="7" depart="54" departLane = "1" departSpeed="11.180000"/>
	<vehicle id="car_62" type="car8" route="3" depart="55" departLane = "0" departSpeed="11.180000"/>
	<vehicle id="car_63" type="car9" route="3" depart="56" departLane = "0" departSpeed="11.180000"/>
	<vehicle id="car_64" type="car8" route="1" depart="58" departLane = "2" departSpeed="11.180000"/>
	<vehicle id="car_65" type="car6" route="7" depart="59" departLane = "0" departSpeed="11.180000"/>
	<vehicle id="car_66" type="car7" route="3" depart="59" departLane = "2" departSpeed="11.180000"/>
	<vehicle id="car_67" type="car8" route="4" depart="59" departLane = "0" departSpeed="11.180000"/>
	<vehicle id="car_68" type="car6" route="4" depart="60" departLane = "0" departSpeed="11.180000"/>
	<vehicle id="car_69" type="car8" route="0" depart="62" departLane = "2" departSpeed="11.180000"/>
	<vehicle id="car_70" type="car5" route="5" depart="63" departLane = "0" departSpeed="11.180000"/>
	<vehicle id="car_71" type="car6" route="3" depart="65" departLane = "2" departSpeed="11.180000"/>
	<vehicle id="car_72" type="car5" route="0" depart="67" departLane = "0" departSpeed="11.180000"/>
	<vehicle id="car_73" type="car9" route="5" depart="67" departLane = "2" departSpeed="11.180000"/>
	<vehicle id="car_74" type="car5" route="5" depart="68" departLane = "0" departSpeed="11.180000"/>
	<vehicle id="car_75" type="car7" route="0" depart="69" departLane = "1" departSpeed="11.180000"/>
	<vehicle id="car_76" type="car7" route="5" depart="69" departLane = "0" departSpeed="11.180000"/>
	<vehicle id="car_77" type="car5" route="3" depart="70" departLane = "0" departSpeed="11.180000"/>
	<vehicle id="car_78" type="car8" route="4" depart="73" departLane = "2" departSpeed="11.180000"/>
	<vehicle id="car_79" type="car9" route="1" depart="75" departLane = "2" departSpeed="11.180000"/>
	<vehicle id="car_80" type="car8" route="1" depart="76" departLane = "2" departSpeed="11.180000"/>
	<vehicle id="car_81" type="car6" route="5" depart="77" departLane = "1" departSpeed="11.180000"/>
	<vehicle id="car_82" type="car9" route="6" depart="77" departLane = "1" departSpeed="11.180000"/>
	<vehicle id="car_83" type="car7" route="5" depart="79" departLane = "1" departSpeed="11.180000"/>
	<vehicle id="car_84" type="car5" route="3" depart="79" departLane = "0" departSpeed="11.180000"/>
	<vehicle id="car_85" type="car8" route="0" depart="80" departLane = "0" departSpeed="11.180000"/>
	<vehicle id="car_86" type="car5" route="3" depart="80" departLane = "0" departSpeed="11.180000"/>
	<vehicle id="car_87" type="car6" route="4" depart="80" departLane = "1" departSpeed="11.180000"/>
	<vehicle id="car_88" type="car6" route="6" depart="80" departLane = "0" departSpeed="11.180000"/>
	<vehicle id="car_89" type="car8" route="4" depart="81" departLane = "2" departSpeed="11.180000"/>
	<vehicle id="car_90" type="car7" route="0" depart="83" departLane = "1" departSpeed="11.180000"/>
	<vehicle id="car_91" type="car9" route="6" depart="83" departLane = "0" departSpeed="11.180000"/>
	<vehicle id="car_92" type="car9" route="5" depart="85" departLane = "0" departSpeed="11.180000"/>
	<vehicle id="car_93" type="car8" route="1" depart="86" departLane = "2" departSpeed="11.180000"/>
	<vehicle id="car_94" type="car8" route="2" depart="87" departLane = "2" departSpeed="11.180000"/>
	<vehicle id="car_95" type="car8" route="5" depart="89" departLane = "1" departSpeed="11.180000"/>
	<vehicle id="car_96" type="car9" route="2" depart="90" departLane = "0" departSpeed="11.180000"/>
	<vehicle id="car_97" type="car8" route="6" depart="90" departLane = "2" departSpeed="11.180000"/>
	<vehicle id="car_98" type="car9" route="5" depart="91" departLane = "2" departSpeed="11.180000"/>
	<vehicle id="car_99" type="car5" route="0" depart="92" departLane = "2" departSpeed="11.180000"/>
	<vehicle id="car_100" type="car7" route="1" depart="95" departLane = "1" departSpeed="11.180000"/>
	<vehicle id="car_101" type="car7" route="6" depart="95" departLane = "1" departSpeed="11.180000"/>
	<vehicle id="car_102" type="car9" route="0" depart="98" departLane = "1" departSpeed="11.180000"/>
	<vehicle id="car_103" type="car9" route="2" depart="99" departLane = "2" departSpeed="11.180000"/>
	<vehicle id="car_104" type="car7" route="5" depart="99" departLane = "0" departSpeed="11.180000"/>
	<vehicle id="car_105" type="car6" route="2" depart="100" departLane = "0" departSpeed="11.180000"/>
	<vehicle id="car_106" type="car6" route="3" depart="100" departLane = "2" departSpeed="11.180000"/>
	<vehicle id="car_107" type="car7" route="4" depart="101" departLane = "0" departSpeed="11.180000"/>
	<vehicle id="car_108" type="car7" route="0" depart="104" departLane = "2" departSpeed="11.180000"/>
	<vehicle id="car_109" type="car6" route="6" depart="104" departLane = "1" departSpeed="11.180000"/>
	<vehicle id="car_110" type="car5" route="2" depart="107" departLane = "0" departSpeed="11.180000"/>
	<vehicle id="car_111" type="car9" route="1" depart="107" departLane = "0" departSpeed="11.180000"/>
	<vehicle id="car_112" type="car7" route="0" depart="108" departLane = "0" departSpeed="11.180000"/>
	<vehicle id="car_113" type="car5" route="1" depart="108" departLane = "1" departSpeed="11.180000"/>
	<vehicle id="car_114" type="car9" route="6" depart="110" departLane = "2" departSpeed="11.180000"/>
	<vehicle id="car_115" type="car7" route="3" depart="111" departLane = "0" departSpeed="11.180000"/>
	<vehicle id="car_116" type="car9" route="7" depart="113" departLane = "1" departSpeed="11.180000"/>
	<vehicle id="car_117" type="car5" route="1" depart="113" departLane = "1" departSpeed="11.180000"/>
	<vehicle id="car_118" type="car5" route="1" depart="114" departLane = "2" departSpeed="11.180000"/>
	<vehicle id="car_119" type="car9" route="6" depart="117" departLane = "1" departSpeed="11.180000"/>
	<vehicle id="car_120" type="car8" route="3" depart="119" departLane = "1" departSpeed="11.180000"/>
	<vehicle id="car_121" type="car7" route="6" depart="119" departLane = "2" departSpeed="11.180000"/>
	<vehicle id="car_122" type="car5" route="5" depart="120" departLane = "1" departSpeed="11.180000"/>
	<vehicle id="car_123" type="car7" route="0" depart="123" departLane = "1" departSpeed="11.180000"/>
	<vehicle id="car_124" type="car8" route="4" depart="123" departLane = "1" departSpeed="11.180000"/>
	<vehicle id="car_125" type="car7" route="1" depart="124" departLane = "2" departSpeed="11.180000"/>
	<vehicle id="car_126" type="car6" route="1" depart="125" departLane = "1" departSpeed="11.180000"/>
	<vehicle id="car_127" type="car8" route="1" depart="127" departLane = "1" departSpeed="11.180000"/>
	<vehicle id="car_128" type="car8" route="6" depart="127" departLane = "2" departSpeed="11.180000"/>
	<vehicle id="car_129" type="car6" route="5" depart="128" departLane = "1" departSpeed="11.180000"/>
	<vehicle id="car_130" type="car7" route="5" depart="129" departLane = "1" departSpeed="11.180000"/>
	<vehicle id="car_131" type="car9" route="2" depart="130" departLane = "1" departSpeed="11.180000"/>
	<vehicle id="car_132" type="car9" route="4" depart="130" departLane = "0" departSpeed="11.180000"/>
	<vehicle id="car_133" type="car7" route="6" depart="130" departLane = "1" departSpeed="11.180000"/>
	<vehicle id="car_134" type="car9" route="1" depart="132" departLane = "2" departSpeed="11.180000"/>
	<vehicle id="car_135" type="car8" route="1" depart="134" departLane = "2" departSpeed="11.180000"/>
	<vehicle id="car_136" type="car8" route="1" depart="138" departLane = "2" departSpeed="11.180000"/>
	<vehicle id="car_137" type="car7" route="3" depart="139" departLane = "1" departSpeed="11.180000"/>
	<vehicle id="car_138" type="car6" route="2" depart="141" departLane = "1" departSpeed="11.180000"/>
	<vehicle id="car_139" type="car9" route="7" depart="142" departLane = "2" departSpeed="11.180000"/>
	<vehicle id="car_140" type="car5" route="2" depart="145" departLane = "0" departSpeed="11.180000"/>
	<vehicle id="car_141" type="car6" route="1" depart="145" departLane = "1" departSpeed="11.180000"/>
	<vehicle id="car_142" type="car7" route="1" depart="147" departLane = "1" departSpeed="11.180000"/>
	<vehicle id="car_143" type="car5" route="5" depart="148" departLane = "2" departSpeed="11.180000"/>
	<vehicle id="car_144" type="car7" route="6" depart="150" departLane = "0" departSpeed="11.180000"/>
	<vehicle id="car_145" type="car8" route="0" depart="151" departLane = "0" departSpeed="11.180000"/>
	<vehicle id="car_146" type="car5" route="2" depart="151" departLane = "1" departSpeed="11.180000"/>
	<vehicle id="car_147" type="car7" route="4" depart="151" departLane = "1" departSpeed="11.180000"/>
	<vehicle id="car_148" type="car9" route="4" depart="152" departLane = "1" departSpeed="11.180000"/>
	<vehicle id="car_149" type="car9" route="4" depart="153" departLane = "0" departSpeed="11.180000"/>
	<vehicle id="car_150" type="car7" route="7" depart="154" departLane = "2" departSpeed="11.180000"/>
	<vehicle id="car_151" type="car7" route="5" depart="156" departLane = "2" departSpeed="11.180000"/>
	<vehicle id="car_152" type="car5" route="6" depart="156" departLane = "2" departSpeed="11.180000"/>
	<vehicle id="car_153" type="car8" route="1" depart="158" departLane = "2" departSpeed="11.180000"/>
	<vehicle id="car_154" type="car6" route="7" depart="161" departLane = "0" departSpeed="11.180000"/>
	<vehicle id="car_155" type="car8" route="1" depart="162" departLane = "2" departSpeed="11.180000"/>
	<vehicle id="car_156" type="car7" route="1" depart="164" departLane = "2" departSpeed="11.180000"/>
	<vehicle id="car_157" type="car8" route="3" depart="164" departLane = "2" departSpeed="11.180000"/>
	<vehicle id="car_158" type="car7" route="7" depart="165" departLane = "1" departSpeed="11.180000"/>
	<vehicle id="car_159" type="car5" route="0" depart="166" departLane = "2" departSpeed="11.180000"/>
	<vehicle id="car_160" type="car7" route="7" depart="166" departLane = "0" departSpeed="11.180000"/>
	<vehicle id="car_161" type="car5" route="4" depart="166" departLane = "2" departSpeed="11.180000"/>
	<vehicle id="car_162" type="car8" route="0" depart="171" departLane = "1" departSpeed="11.180000"/>
	<vehicle id="car_163" type="car6" route="0" depart="173" departLane = "0" departSpeed="11.180000"/>
	<vehicle id="car_164" type="car7" route="4" depart="173" departLane = "2" departSpeed="11.180000"/>
	<vehicle id="car_165" type="car9" route="6" depart="174" departLane = "2" departSpeed="11.180000"/>
	<vehicle id="car_166" type="car8" route="2" depart="175" departLane = "1" departSpeed="11.180000"/>
	<vehicle id="car_167" type="car9" route="7" depart="178" departLane = "0" departSpeed="11.180000"/>
	<vehicle id="car_168" type="car8" route="2" depart="180" departLane = "2" departSpeed="11.180000"/>
	<vehicle id="car_169" type="car5" route="0" depart="181" departLane = "0" departSpeed="11.180000"/>
	<vehicle id="car_170" type="car6" route="7" depart="181" departLane = "1" departSpeed="11.180000"/>
	<vehicle id="car_171" type="car5" route="6" depart="184" departLane = "0" departSpeed="11.180000"/>
	<vehicle id="car_172" type="car5" route="7" depart="185" departLane = "2" departSpeed="11.180000"/>
	<vehicle id="car_173" type="car7" route="4" depart="185" departLane = "0" departSpeed="11.180000"/>
	<vehicle id="car_174" type="car7" route="5" depart="186" departLane = "0" departSpeed="11.180000"/>
	<vehicle id="car_175" type="car8" route="7" depart="186" departLane = "1" departSpeed="11.180000"/>
	<vehicle id="car_176" type="car9" route="6" depart="187" departLane = "1" departSpeed="11.180000"/>
	<vehicle id="car_177" type="car7" route="3" depart="188" departLane = "1" departSpeed="11.180000"/>
	<vehicle id="car_178" type="car6" route="1" depart="189" departLane = "0" departSpeed="11.180000"/>
	<vehicle id="car_179" type="car9" route="3" depart="189" departLane = "1" departSpeed="11.180000"/>
	<vehicle id="car_180" type="car6" route="2" depart="191" departLane = "0" departSpeed="11.180000"/>
	<vehicle id="car_181" type="car7" route="1" depart="192" departLane = "2" departSpeed="11.180000"/>
	<vehicle id="car_182" type="car5" route="6" depart="194" departLane = "2" departSpeed="11.180000"/>
	<vehicle id="car_183" type="car5" route="2" depart="195" departLane = "1" departSpeed="11.180000"/>
	<vehicle id="car_184" type="car6" route="2" depart="196" departLane = "2" departSpeed="11.180000"/>
	<vehicle id="car_185" type="car6" route="1" depart="197" departLane = "2" departSpeed="11.180000"/>
	<vehicle id="car_186" type="car7" route="7" depart="198" departLane = "0" departSpeed="11.180000"/>
	<vehicle id="car_187" type="car8" route="3" depart="203" departLane = "2" departSpeed="11.180000"/>
	<vehicle id="car_188" type="car5" route="1" depart="204" departLane = "0" departSpeed="11.180000"/>
	<vehicle id="car_189" type="car7" route="4" depart="204" departLane = "2" departSpeed="11.180000"/>
	<vehicle id="car_190" type="car5" route="2" depart="205" departLane = "1" departSpeed="11.180000"/>
	<vehicle id="car_191" type="car7" route="7" depart="205" departLane = "2" departSpeed="11.180000"/>
	<vehicle id="car_192" type="car9" route="1" depart="206" departLane = "1" departSpeed="11.180000"/>
	<vehicle id="car_193" type="car6" route="5" depart="207" departLane = "0" departSpeed="11.180000"/>
	<vehicle id="car_194" type="car8" route="3" depart="208" departLane = "1" departSpeed="11.180000"/>
	<vehicle id="car_195" type="car8" route="5" depart="209" departLane = "1" departSpeed="11.180000"/>
	<vehicle id="car_196" type="car8" route="3" depart="209" departLane = "2" departSpeed="11.180000"/>
	<vehicle id="car_197" type="car6" route="2" depart="212" departLane = "1" departSpeed="11.180000"/>
	<vehicle id="car_198" type="car7" route="5" depart="212" departLane = "0" departSpeed="11.180000"/>
	<vehicle id="car_199" type="car8" route="0" depart="214" departLane = "2" departSpeed="11.180000"/>
	<vehicle id="car_200" type="car6" route="1" depart="214" departLane = "0" departSpeed="11.180000"/>
	<vehicle id="car_201" type="car7" route="3" depart="215" departLane = "1" departSpeed="11.180000"/>
	<vehicle id="car_202" type="car9" route="0" depart="216" departLane = "0" departSpeed="11.180000"/>
	<vehicle id="car_203" type="car6" route="4" depart="216" departLane = "1" departSpeed="11.180000"/>
	<vehicle id="car_204" type="car7" route="0" depart="217" departLane = "2" departSpeed="11.180000"/>
	<vehicle id="car_205" type="car7" route="0" depart="218" departLane = "1" departSpeed="11.180000"/>
	<vehicle id="car_206" type="car7" route="2" depart="219" departLane = "0" departSpeed="11.180000"/>
	<vehicle id="car_207" type="car6" route="0" depart="221" departLane = "1" departSpeed="11.180000"/>
	<vehicle id="car_208" type="car8" route="0" depart="224" departLane = "1" departSpeed="11.180000"/>
	<vehicle id="car_209" type="car5" route="1" depart="224" departLane = "1" departSpeed="11.180000"/>
	<vehicle id="car_210" type="car9" route="7" depart="226" departLane = "2" departSpeed="11.180000"/>
	<vehicle id="car_211" type="car6" route="5" depart="227" departLane = "1" departSpeed="11.180000"/>
	<vehicle id="car_212" type="car5" route="4" depart="227" departLane = "0" departSpeed="11.180000"/>
	<vehicle id="car_213" type="car7" route="0" depart="229" departLane = "1" departSpeed="11.180000"/>
	<vehicle id="car_214" type="car5" route="1" depart="229" departLane = "2" departSpeed="11.180000"/>
	<vehicle id="car_215" type="car7" route="0" depart="230" departLane = "2" departSpeed="11.180000"/>
	<vehicle id="car_216" type="car7" route="3" depart="230" departLane = "2" departSpeed="11.180000"/>
	<vehicle id="car_217" type="car8" route="6" depart="230" departLane = "0" departSpeed="11.180000"/>
	<vehicle id="car_218" type="car6" route="5" depart="232" departLane = "0" departSpeed="11.180000"/>
	<vehicle id="car_219" type="car5" route="0" depart="233" departLane = "2" departSpeed="11.180000"/>
	<vehicle id="car_220" type="car6" route="2" depart="233" departLane = "2" departSpeed="11.180000"/>
	<vehicle id="car_221" type="car7" route="5" depart="234" departLane = "2" departSpeed="11.180000"/>
	<vehicle id="car_222" type="car5" route="4" depart="234" departLane = "2" departSpeed="11.180000"/>
	<vehicle id="car_223" type="car7" route="7" depart="237" departLane = "1" departSpeed="11.180000"/>
	<vehicle id="car_224" type="car8" route="5" depart="241" departLane = "1" departSpeed="11.180000"/>
	<vehicle id="car_225" type="car7" route="3" depart="243" departLane = "2" departSpeed="11.180000"/>
	<vehicle id="car_226" type="car8" route="3" depart="244" departLane = "0" departSpeed="11.180000"/>
	<vehicle id="car_227" type="car5" route="3" depart="245" departLane = "2" departSpeed="11.180000"/>
	<vehicle id="car_228" type="car6" route="7" depart="247" departLane = "0" departSpeed="11.180000"/>
	<vehicle id="car_229" type="car7" route="2" depart="248" departLane = "0" departSpeed="11.180000"/>
	<vehicle id="car_230" type="car5" route="1" depart="248" departLane = "0" departSpeed="11.180000"/>
	<vehicle id="car_231" type="car7" route="3" depart="250" departLane = "0" departSpeed="11.180000"/>
	<vehicle id="car_232" type="car8" route="7" depart="255" departLane = "2" departSpeed="11.180000"/>
	<vehicle id="car_233" type="car5" route="3" depart="256" departLane = "1" departSpeed="11.180000"/>
	<vehicle id="car_234" type="car5" route="6" depart="257" departLane = "2" departSpeed="11.180000"/>
	<vehicle id="car_235" type="car8" route="2" depart="260" departLane = "2" departSpeed="11.180000"/>
	<vehicle id="car_236" type="car5" route="5" depart="260" departLane = "2" departSpeed="11.180000"/>
	<vehicle id="car_237" type="car8" route="4" depart="260" departLane = "1" departSpeed="11.180000"/>
	<vehicle id="car_238" type="car6" route="2" depart="261" departLane = "2" departSpeed="11.180000"/>
	<vehicle id="car_239" type="car6" route="0" depart="262" departLane = "2" departSpeed="11.180000"/>
	<vehicle id="car_240" type="car8" route="6" depart="262" departLane = "1" departSpeed="11.180000"/>
	<vehicle id="car_241" type="car9" route="6" depart="264" departLane = "1" departSpeed="11.180000"/>
	<vehicle id="car_242" type="car9" route="5" depart="265" departLane = "1" departSpeed="11.180000"/>
	<vehicle id="car_243" type="car9" route="3" depart="267" departLane = "2" departSpeed="11.180000"/>
	<vehicle id="car_244" type="car5" route="4" depart="267" departLane = "2" departSpeed="11.180000"/>
	<vehicle id="car_245" type="car8" route="5" depart="269" departLane = "0" departSpeed="11.180000"/>
	<vehicle id="car_246" type="car6" route="2" depart="270" departLane = "1" departSpeed="11.180000"/>
	<vehicle id="car_247" type="car6" route="1" depart="270" departLane = "2" departSpeed="11.180000"/>
	<vehicle id="car_248" type="car5" route="2" depart="271" departLane = "0" departSpeed="11.180000"/>
	<vehicle id="car_249" type="car5" route="1" depart="271" departLane = "2" departSpeed="11.180000"/>
	<vehicle id="car_250" type="car5" route="2" depart="272" departLane = "0" departSpeed="11.180000"/>
	<vehicle id="car_251" type="car5" route="7" depart="272" departLane = "1" departSpeed="11.180000"/>
	<vehicle id="car_252" type="car9" route="1" depart="273" departLane = "1" departSpeed="11.180000"/>
	<vehicle id="car_253" type="car7" route="6" depart="273" departLane = "2" departSpeed="11.180000"/>
	<vehicle id="car_254" type="car7" route="1" depart="279" departLane = "0" departSpeed="11.180000"/>
	<vehicle id="car_255" type="car7" route="7" depart="280" departLane = "2" departSpeed="11.180000"/>
	<vehicle id="car_256" type="car7" route="1" depart="280" departLane = "2" departSpeed="11.180000"/>
	<vehicle id="car_257" type="car7" route="2" depart="282" departLane = "0" departSpeed="11.180000"/>
	<vehicle id="car_258" type="car7" route="5" depart="283" departLane = "2" departSpeed="11.180000"/>
	<vehicle id="car_259" type="car8" route="6" depart="283" departLane = "2" departSpeed="11.180000"/>
	<vehicle id="car_260" type="car7" route="0" depart="285" departLane = "1" departSpeed="11.180000"/>
	<vehicle id="car_261" type="car7" route="7" depart="287" departLane = "1" departSpeed="11.180000"/>
	<vehicle id="car_262" type="car6" route="4" depart="287" departLane = "2" departSpeed="11.180000"/>
	<vehicle id="car_263" type="car8" route="1" depart="289" departLane = "0" departSpeed="11.180000"/>
	<vehicle id="car_264" type="car8" route="2" depart="290" departLane = "0" departSpeed="11.180000"/>
	<vehicle id="car_265" type="car5" route="3" depart="290" departLane = "0" departSpeed="11.180000"/>
	<vehicle id="car_266" type="car8" route="7" depart="291" departLane = "2" departSpeed="11.180000"/>
	<vehicle id="car_267" type="car6" route="4" depart="292" departLane = "2" departSpeed="11.180000"/>
	<vehicle id="car_268" type="car5" route="7" depart="295" departLane = "2" departSpeed="11.180000"/>
	<vehicle id="car_269" type="car6" route="2" depart="296" departLane = "0" departSpeed="11.180000"/>
	<vehicle id="car_270" type="car9" route="4" depart="297" departLane = "0" departSpeed="11.180000"/>
	<vehicle id="car_271" type="car9" route="6" depart="297" departLane = "2" departSpeed="11.180000"/>
	<vehicle id="car_272" type="car8" route="5" depart="298" departLane = "2" departSpeed="11.180000"/>
	<vehicle id="car_273" type="car7" route="5" depart="299" departLane = "2" departSpeed="11.180000"/>
	<vehicle id="car_274" type="car8" route="7" depart="300" departLane = "2" departSpeed="11.180000"/>
	<vehicle id="car_275" type="car5" route="2" depart="301" departLane = "2" departSpeed="11.180000"/>
	<vehicle id="car_276" type="car5" route="4" depart="305" departLane = "1" departSpeed="11.180000"/>
	<vehicle id="car_277" type="car8" route="0" depart="306" departLane = "0" departSpeed="11.180000"/>
	<vehicle id="car_278" type="car7" route="1" depart="307" departLane = "2" departSpeed="11.180000"/>
	<vehicle id="car_279" type="car7" route="6" depart="308" departLane = "0" departSpeed="11.180000"/>
	<vehicle id="car_280" type="car8" route="6" depart="314" departLane = "2" departSpeed="11.180000"/>
	<vehicle id="car_281" type="car5" route="1" depart="316" departLane = "0" departSpeed="11.180000"/>
	<vehicle id="car_282" type="car5" route="4" depart="316" departLane = "2" departSpeed="11.180000"/>
	<vehicle id="car_283" type="car8" route="4" depart="317" departLane = "2" departSpeed="11.180000"/>
	<vehicle id="car_284" type="car7" route="6" depart="317" departLane = "1" departSpeed="11.180000"/>
	<vehicle id="car_285" type="car8" route="0" depart="318" departLane = "2" departSpeed="11.180000"/>
	<vehicle id="car_286" type="car5" route="4" depart="318" departLane = "0" departSpeed="11.180000"/>
	<vehicle id="car_287" type="car7" route="6" depart="318" departLane = "2" departSpeed="11.180000"/>