<routes>

	<vType id="car5" accel="100.0" decel="100.0" sigma="0.0" length="5" minGap="5.000000" maxSpeed="11.180000" tau="0.100000" carFollowModel="CACC" color="255,255,255"/>
	<vType id="car6" accel="100.0" decel="100.0" sigma="0.0" length="6" minGap="5.000000" maxSpeed="11.180000" tau="0.100000" carFollowModel="CACC" color="255,255,255"/>
	<vType id="car7" accel="100.0" decel="100.0" sigma="0.0" length="7" minGap="5.000000" maxSpeed="11.180000" tau="0.100000" carFollowModel="CACC" color="255,255,255"/>
	<vType id="car8" accel="100.0" decel="100.0" sigma="0.0" length="8" minGap="5.000000" maxSpeed="11.180000" tau="0.100000" carFollowModel="CACC" color="255,255,255"/>
	<vType id="car9" accel="100.0" decel="100.0" sigma="0.0" length="9" minGap="5.000000" maxSpeed="11.180000" tau="0.100000" carFollowModel="CACC" color="255,255,255"/>

	<route id="0" edges=" 001_001_1"/>
	<route id="3" edges=" 001_003_2"/>
	<route id="8" edges=" 003_001_3"/>
	<route id="11" edges=" 001_001_4"/>
	<route id="1" edges=" 001_002_1"/>
	<route id="4" edges=" 002_003_2"/>
	<route id="7" edges=" 003_002_3"/>
	<route id="10" edges=" 002_001_4"/>
	<route id="2" edges=" 001_003_1"/>
	<route id="5" edges=" 003_003_2"/>
	<route id="6" edges=" 003_003_3"/>
	<route id="9" edges=" 003_001_4"/>

	<vehicle id="car_0" type="car5" route="2" depart="0" departLane = "2" departSpeed="11.180000"/>
	<vehicle id="car_1" type="car7" route="6" depart="0" departLane = "2" departSpeed="11.180000"/>
	<vehicle id="car_2" type="car5" route="3" depart="1" departLane = "1" departSpeed="11.180000"/>
	<vehicle id="car_3" type="car6" route="4" depart="1" departLane = "1" departSpeed="11.180000"/>
	<vehicle id="car_4" type="car9" route="9" depart="1" departLane = "1" departSpeed="11.180000"/>
	<vehicle id="car_5" type="car6" route="4" depart="3" departLane = "2" departSpeed="11.180000"/>
	<vehicle id="car_6" type="car5" route="4" depart="4" departLane = "2" departSpeed="11.180000"/>
	<vehicle id="car_7" type="car8" route="6" depart="5" departLane = "2" departSpeed="11.180000"/>
	<vehicle id="car_8" type="car9" route="1" depart="6" departLane = "1" departSpeed="11.180000"/>
	<vehicle id="car_9" type="car6" route="0" depart="7" departLane = "0" departSpeed="11.180000"/>
	<vehicle id="car_10" type="car5" route="2" depart="7" departLane = "0" departSpeed="11.180000"/>
	<vehicle id="car_11" type="car5" route="3" depart="8" departLane = "1" departSpeed="11.180000"/>
	<vehicle id="car_12" type="car6" route="10" depart="8" departLane = "1" departSpeed="11.180000"/>
	<vehicle id="car_13" type="car5" route="8" depart="9" departLane = "0" departSpeed="11.180000"/>
	<vehicle id="car_14" type="car6" route="4" depart="10" departLane = "2" departSpeed="11.180000"/>
	<vehicle id="car_15" type="car9" route="3" depart="11" departLane = "0" departSpeed="11.180000"/>
	<vehicle id="car_16" type="car6" route="6" depart="12" departLane = "0" departSpeed="11.180000"/>
	<vehicle id="car_17" type="car5" route="0" depart="14" departLane = "2" departSpeed="11.180000"/>
	<vehicle id="car_18" type="car5" route="8" depart="15" departLane = "2" departSpeed="11.180000"/>
	<vehicle id="car_19" type="car6" route="6" depart="15" departLane = "2" departSpeed="11.180000"/>
	<vehicle id="car_20" type="car8" route="1" depart="16" departLane = "0" departSpeed="11.180000"/>
	<vehicle id="car_21" type="car6" route="7" depart="16" departLane = "2" departSpeed="11.180000"/>
	<vehicle id="car_22" type="car5" route="5" depart="17" departLane = "2" departSpeed="11.180000"/>
	<vehicle id="car_23" type="car9" route="3" depart="18" departLane = "2" departSpeed="11.180000"/>
	<vehicle id="car_24" type="car6" route="3" depart="19" departLane = "2" departSpeed="11.180000"/>
	<vehicle id="car_25" type="car6" route="1" depart="20" departLane = "0" departSpeed="11.180000"/>
	<vehicle id="car_26" type="car5" route="4" depart="20" departLane = "1" departSpeed="11.180000"/>
	<vehicle id="car_27" type="car9" route="0" depart="21" departLane = "0" departSpeed="11.180000"/>
	<vehicle id="car_28" type="car6" route="9" depart="21" departLane = "2" departSpeed="11.180000"/>
	<vehicle id="car_29" type="car9" route="6" depart="22" departLane = "2" departSpeed="11.180000"/>
	<vehicle id="car_30" type="car8" route="4" depart="23" departLane = "1" departSpeed="11.180000"/>
	<vehicle id="car_31" type="car7" route="11" depart="24" departLane = "1" departSpeed="11.180000"/>
	<vehicle id="car_32" type="car5" route="4" depart="25" departLane = "1" departSpeed="11.180000"/>
	<vehicle id="car_33" type="car8" route="3" depart="27" departLane = "2" departSpeed="11.180000"/>
	<vehicle id="car_34" type="car9" route="4" depart="27" departLane = "2" departSpeed="11.180000"/>
	<vehicle id="car_35" type="car5" route="2" depart="29" departLane = "1" departSpeed="11.180000"/>
	<vehicle id="car_36" type="car7" route="2" depart="32" departLane = "1" departSpeed="11.180000"/>
	<vehicle id="car_37" type="car6" route="11" depart="33" departLane = "1" departSpeed="11.180000"/>
	<vehicle id="car_38" type="car6" route="4" depart="34" departLane = "1" departSpeed="11.180000"/>
	<vehicle id="car_39" type="car7" route="6" depart="36" departLane = "2" departSpeed="11.180000"/>
	<vehicle id="car_40" type="car7" route="3" depart="37" departLane = "2" departSpeed="11.180000"/>
	<vehicle id="car_41" type="car9" route="5" depart="37" departLane = "1" departSpeed="11.180000"/>
	<vehicle id="car_42" type="car9" route="1" depart="39" departLane = "1" departSpeed="11.180000"/>
	<vehicle id="car_43" type="car5" route="7" depart="41" departLane = "0" departSpeed="11.180000"/>
	<vehicle id="car_44" type="car8" route="5" depart="41" departLane = "2" departSpeed="11.180000"/>
	<vehicle id="car_45" type="car6" route="11" depart="42" departLane = "1" departSpeed="11.180000"/>
	<vehicle id="car_46" type="car8" route="11" depart="43" departLane = "2" departSpeed="11.180000"/>
	<vehicle id="car_47" type="car5" route="0" depart="44" departLane = "1" departSpeed="11.180000"/>
	<vehicle id="car_48" type="car5" route="4" depart="44" departLane = "2" departSpeed="11.180000"/>
	<vehicle id="car_49" type="car5" route="2" depart="44" departLane = "1" departSpeed="11.180000"/>
	<vehicle id="car_50" type="car9" route="4" depart="45" departLane = "1" departSpeed="11.180000"/>
	<vehicle id="car_51" type="car6" route="5" depart="45" departLane = "1" departSpeed="11.180000"/>
	<vehicle id="car_52" type="car5" route="9" depart="46" departLane = "2" departSpeed="11.180000"/>
	<vehicle id="car_53" type="car7" route="8" depart="47" departLane = "1" departSpeed="11.180000"/>
	<vehicle id="car_54" type="car7" route="7" depart="47" departLane = "0" departSpeed="11.180000"/>
	<vehicle id="car_55" type="car5" route="10" depart="47" departLane = "1" departSpeed="11.180000"/>
	<vehicle id="car_56" type="car6" route="0" depart="50" departLane = "1" departSpeed="11.180000"/>
	<vehicle id="car_57" type="car9" route="3" depart="51" departLane = "1" departSpeed="11.180000"/>
	<vehicle id="car_58" type="car5" route="7" depart="53" departLane = "1" departSpeed="11.180000"/>
	<vehicle id="car_59" type="car5" route="9" depart="53" departLane = "2" departSpeed="11.180000"/>
	<vehicle id="car_60" type="car6" route="8" depart="54" departLane = "2" departSpeed="11.180000"/>
	<vehicle id="car_61" type="car9" route="8" depart="56" departLane = "1" departSpeed="11.180000"/>
	<vehicle id="car_62" type="car5" route="4" depart="56" departLane = "0" departSpeed="11.180000"/>
	<vehicle id="car_63" type="car5" route="9" depart="59" departLane = "0" departSpeed="11.180000"/>
	<vehicle id="car_64" type="car5" route="8" depart="61" departLane = "2" departSpeed="11.180000"/>
	<vehicle id="car_65" type="car6" route="11" depart="61" departLane = "1" departSpeed="11.180000"/>
	<vehicle id="car_66" type="car8" route="10" depart="61" departLane = "2" departSpeed="11.180000"/>
	<vehicle id="car_67" type="car6" route="0" depart="63" departLane = "2" departSpeed="11.180000"/>
	<vehicle id="car_68" type="car9" route="5" depart="64" departLane = "1" departSpeed="11.180000"/>
	<vehicle id="car_69" type="car6" route="4" depart="67" departLane = "2" departSpeed="11.180000"/>
	<vehicle id="car_70" type="car7" route="8" depart="68" departLane = "2" departSpeed="11.180000"/>
	<vehicle id="car_71" type="car5" route="5" depart="68" departLane = "0" departSpeed="11.180000"/>
	<vehicle id="car_72" type="car6" route="6" depart="68" departLane = "2" departSpeed="11.180000"/>
	<vehicle id="car_73" type="car6" route="8" depart="69" departLane = "0" departSpeed="11.180000"/>
	<vehicle id="car_74" type="car5" route="4" depart="69" departLane = "2" departSpeed="11.180000"/>
	<vehicle id="car_75" type="car5" route="2" depart="69" departLane = "0" departSpeed="11.180000"/>
	<vehicle id="car_76" type="car7" route="5" depart="71" departLane = "0" departSpeed="11.180000"/>
	<vehicle id="car_77" type="car6" route="3" depart="73" departLane = "2" departSpeed="11.180000"/>
	<vehicle id="car_78" type="car9" route="2" depart="74" departLane = "2" departSpeed="11.180000"/>
	<vehicle id="car_79" type="car7" route="10" depart="75" departLane = "0" departSpeed="11.180000"/>
	<vehicle id="car_80" type="car5" route="2" depart="75" departLane = "0" departSpeed="11.180000"/>
	<vehicle id="car_81" type="car7" route="10" depart="77" departLane = "1" departSpeed="11.180000"/>
	<vehicle id="car_82" type="car8" route="3" depart="78" departLane = "2" departSpeed="11.180000"/>
	<vehicle id="car_83" type="car9" route="10" depart="78" departLane = "1" departSpeed="11.180000"/>
	<vehicle id="car_84" type="car6" route="6" depart="78" departLane = "2" departSpeed="11.180000"/>
	<vehicle id="car_85" type="car5" route="8" depart="80" departLane = "0" departSpeed="11.180000"/>
	<vehicle id="car_86" type="car6" route="6" depart="80" departLane = "1" departSpeed="11.180000"/>
	<vehicle id="car_87" type="car9" route="8" depart="81" departLane = "2" departSpeed="11.180000"/>
	<vehicle id="car_88" type="car9" route="7" depart="83" departLane = "0" departSpeed="11.180000"/>
	<vehicle id="car_89" type="car8" route="0" depart="87" departLane = "0" departSpeed="11.180000"/>
	<vehicle id="car_90" type="car6" route="7" depart="87" departLane = "1" departSpeed="11.180000"/>
	<vehicle id="car_91" type="car9" route="11" depart="88" departLane = "0" departSpeed="11.180000"/>
	<vehicle id="car_92" type="car9" route="6" depart="88" departLane = "0" departSpeed="11.180000"/>
	<vehicle id="car_93" type="car5" route="11" depart="90" departLane = "0" departSpeed="11.180000"/>
	<vehicle id="car_94" type="car9" route="4" depart="91" departLane = "0" departSpeed="11.180000"/>
	<vehicle id="car_95" type="car6" route="7" depart="91" departLane = "2" departSpeed="11.180000"/>
	<vehicle id="car_96" type="car8" route="5" depart="91" departLane = "0" departSpeed="11.180000"/>
	<vehicle id="car_97" type="car9" route="5" depart="92" departLane = "1" departSpeed="11.180000"/>
	<vehicle id="car_98" type="car7" route="8" depart="93" departLane = "2" departSpeed="11.180000"/>
	<vehicle id="car_99" type="car9" route="10" depart="95" departLane = "1" departSpeed="11.180000"/>
	<vehicle id="car_100" type="car5" route="4" depart="96" departLane = "0" departSpeed="11.180000"/>
	<vehicle id="car_101" type="car5" route="11" depart="97" departLane = "1" departSpeed="11.180000"/>
	<vehicle id="car_102" type="car5" route="5" depart="97" departLane = "2" departSpeed="11.180000"/>
	<vehicle id="car_103" type="car6" route="6" depart="97" departLane = "2" departSpeed="11.180000"/>
	<vehicle id="car_104" type="car6" route="10" depart="98" departLane = "2" departSpeed="11.180000"/>
	<vehicle id="car_105" type="car6" route="0" depart="99" departLane = "2" departSpeed="11.180000"/>
	<vehicle id="car_106" type="car7" route="3" depart="99" departLane = "1" departSpeed="11.180000"/>
	<vehicle id="car_107" type="car9" route="9" depart="99" departLane = "1" departSpeed="11.180000"/>
	<vehicle id="car_108" type="car9" route="11" depart="100" departLane = "0" departSpeed="11.180000"/>
	<vehicle id="car_109" type="car8" route="4" depart="100" departLane = "0" departSpeed="11.180000"/>
	<vehicle id="car_110" type="car7" route="7" depart="100" departLane = "0" departSpeed="11.180000"/>
	<vehicle id="car_111" type="car5" route="7" depart="101" departLane = "0" departSpeed="11.180000"/>
	<vehicle id="car_112" type="car7" route="0" depart="102" departLane = "2" departSpeed="11.180000"/>
	<vehicle id="car_113" type="car7" route="5" depart="103" departLane = "2" departSpeed="11.180000"/>
	<vehicle id="car_114" type="car8" route="2" depart="104" departLane = "2" departSpeed="11.180000"/>
	<vehicle id="car_115" type="car5" route="8" depart="105" departLane = "2" departSpeed="11.180000"/>
	<vehicle id="car_116" type="car5" route="2" depart="106" departLane = "2" departSpeed="11.180000"/>
	<vehicle id="car_117" type="car8" route="7" depart="107" departLane = "0" departSpeed="11.180000"/>
	<vehicle id="car_118" type="car6" route="2" depart="107" departLane = "1" departSpeed="11.180000"/>
	<vehicle id="car_119" type="car6" route="1" depart="108" departLane = "0" departSpeed="11.180000"/>
	<vehicle id="car_120" type="car5" route="10" depart="109" departLane = "0" departSpeed="11.180000"/>
	<vehicle id="car_121" type="car5" route="5" depart="109" departLane = "1" departSpeed="11.180000"/>
	<vehicle id="car_122" type="car5" route="6" depart="109" departLane = "0" departSpeed="11.180000"/>
	<vehicle id="car_123" type="car5" route="6" depart="110" departLane = "1" departSpeed="11.180000"/>
	<vehicle id="car_124" type="car8" route="3" depart="111" departLane = "2" departSpeed="11.180000"/>
	<vehicle id="car_125" type="car6" route="1" depart="111" departLane = "1" departSpeed="11.180000"/>
	<vehicle id="car_126" type="car6" route="10" depart="112" departLane = "0" departSpeed="11.180000"/>
	<vehicle id="car_127" type="car8" route="5" depart="113" departLane = "2" departSpeed="11.180000"/>
	<vehicle id="car_128" type="car5" route="7" depart="114" departLane = "0" departSpeed="11.180000"/>
	<vehicle id="car_129" type="car8" route="3" depart="115" departLane = "0" departSpeed="11.180000"/>
	<vehicle id="car_130" type="car5" route="9" depart="115" departLane = "1" departSpeed="11.180000"/>
	<vehicle id="car_131" type="car6" route="3" depart="117" departLane = "1" departSpeed="11.180000"/>
	<vehicle id="car_132" type="car9" route="2" depart="117" departLane = "2" departSpeed="11.180000"/>
	<vehicle id="car_133" type="car5" route="5" depart="117" departLane = "1" departSpeed="11.180000"/>
	<vehicle id="car_134" type="car6" route="3" depart="119" departLane = "2" departSpeed="11.180000"/>
	<vehicle id="car_135" type="car6" route="4" depart="119" departLane = "1" departSpeed="11.180000"/>
	<vehicle id="car_136" type="car8" route="10" depart="119" departLane = "0" departSpeed="11.180000"/>
	<vehicle id="car_137" type="car6" route="0" depart="120" departLane = "1" departSpeed="11.180000"/>
	<vehicle id="car_138" type="car6" route="11" depart="120" departLane = "2" departSpeed="11.180000"/>
	<vehicle id="car_139" type="car5" route="6" depart="120" departLane = "1" departSpeed="11.180000"/>
	<vehicle id="car_140" type="car7" route="5" depart="121" departLane = "2" departSpeed="11.180000"/>
	<vehicle id="car_141" type="car7" route="7" depart="123" departLane = "1" departSpeed="11.180000"/>
	<vehicle id="car_142" type="car7" route="9" depart="123" departLane = "1" departSpeed="11.180000"/>
	<vehicle id="car_143" type="car8" route="8" depart="124" departLane = "2" departSpeed="11.180000"/>
	<vehicle id="car_144" type="car8" route="7" depart="124" departLane = "1" departSpeed="11.180000"/>
	<vehicle id="car_145" type="car6" route="8" depart="125" departLane = "2" departSpeed="11.180000"/>
	<vehicle id="car_146" type="car9" route="8" depart="127" departLane = "0" departSpeed="11.180000"/>
	<vehicle id="car_147" type="car8" route="6" depart="127" departLane = "0" departSpeed="11.180000"/>
	<vehicle id="car_148" type="car5" route="11" depart="128" departLane = "2" departSpeed="11.180000"/>
	<vehicle id="car_149" type="car9" route="3" depart="129" departLane = "0" departSpeed="11.180000"/>
	<vehicle id="car_150" type="car7" route="4" depart="129" departLane = "2" departSpeed="11.180000"/>
	<vehicle id="car_151" type="car5" route="0" depart="131" departLane = "1" departSpeed="11.180000"/>
	<vehicle id="car_152" type="car7" route="8" depart="131" departLane = "1" departSpeed="11.180000"/>
	<vehicle id="car_153" type="car8" route="10" depart="135" departLane = "1" departSpeed="11.180000"/>
	<vehicle id="car_154" type="car7" route="9" depart="135" departLane = "0" departSpeed="11.180000"/>
	<vehicle id="car_155" type="car7" route="7" depart="138" departLane = "1" departSpeed="11.180000"/>
	<vehicle id="car_156" type="car7" route="9" depart="138" departLane = "1" departSpeed="11.180000"/>
	<vehicle id="car_157" type="car8" route="11" depart="139" departLane = "0" departSpeed="11.180000"/>
	<vehicle id="car_158" type="car6" route="0" depart="141" departLane = "0" departSpeed="11.180000"/>
	<vehicle id="car_159" type="car9" route="1" depart="141" departLane = "2" departSpeed="11.180000"/>
	<vehicle id="car_160" type="car7" route="8" depart="142" departLane = "2" departSpeed="11.180000"/>
	<vehicle id="car_161" type="car5" route="6" depart="142" departLane = "0" departSpeed="11.180000"/>
	<vehicle id="car_162" type="car5" route="9" depart="142" departLane = "2" departSpeed="11.180000"/>
	<vehicle id="car_163" type="car7" route="11" depart="143" departLane = "2" departSpeed="11.180000"/>
	<vehicle id="car_164" type="car7" route="0" depart="144" departLane = "2" departSpeed="11.180000"/>
	<vehicle id="car_165" type="car5" route="3" depart="144" departLane = "2" departSpeed="11.180000"/>
	<vehicle id="car_166" type="car7" route="11" depart="144" departLane = "2" departSpeed="11.180000"/>
	<vehicle id="car_167" type="car7" route="5" depart="144" departLane = "0" departSpeed="11.180000"/>
	<vehicle id="car_168" type="car5" route="5" depart="146" departLane = "2" departSpeed="11.180000"/>
	<vehicle id="car_169" type="car7" route="4" depart="148" departLane = "0" departSpeed="11.180000"/>
	<vehicle id="car_170" type="car5" route="5" depart="149" departLane = "0" departSpeed="11.180000"/>
	<vehicle id="car_171" type="car6" route="11" depart="150" departLane = "2" departSpeed="11.180000"/>
	<vehicle id="car_172" type="car8" route="9" depart="150" departLane = "0" departSpeed="11.180000"/>
	<vehicle id="car_173" type="car8" route="1" depart="151" departLane = "2" departSpeed="11.180000"/>
	<vehicle id="car_174" type="car6" route="3" depart="153" departLane = "2" departSpeed="11.180000"/>
	<vehicle id="car_175" type="car8" route="10" depart="153" departLane = "1" departSpeed="11.180000"/>
	<vehicle id="car_176" type="car6" route="11" depart="154" departLane = "1" departSpeed="11.180000"/>
	<vehicle id="car_177" type="car8" route="10" depart="156" departLane = "2" departSpeed="11.180000"/>
	<vehicle id="car_178" type="car7" route="8" depart="157" departLane = "0" departSpeed="11.180000"/>
	<vehicle id="car_179" type="car9" route="10" depart="157" departLane = "1" departSpeed="11.180000"/>
	<vehicle id="car_180" type="car8" route="6" depart="157" departLane = "1" departSpeed="11.180000"/>
	<vehicle id="car_181" type="car5" route="9" depart="157" departLane = "0" departSpeed="11.180000"/>
	<vehicle id="car_182" type="car7" route="4" depart="159" departLane = "2" departSpeed="11.180000"/>
	<vehicle id="car_183" type="car6" route="10" depart="160" departLane = "2" departSpeed="11.180000"/>
	<vehicle id="car_184" type="car5" route="8" depart="161" departLane = "0" departSpeed="11.180000"/>
	<vehicle id="car_185" type="car9" route="4" depart="161" departLane = "1" departSpeed="11.180000"/>
	<vehicle id="car_186" type="car5" route="3" depart="162" departLane = "2" departSpeed="11.180000"/>
	<vehicle id="car_187" type="car5" route="8" depart="162" departLane = "1" departSpeed="11.180000"/>
	<vehicle id="car_188" type="car9" route="9" depart="162" departLane = "0" departSpeed="11.180000"/>
	<vehicle id="car_189" type="car5" route="11" depart="163" departLane = "0" departSpeed="11.180000"/>
	<vehicle id="car_190" type="car7" route="4" depart="163" departLane = "0" departSpeed="11.180000"/>
	<vehicle id="car_191" type="car5" route="7" depart="164" departLane = "0" departSpeed="11.180000"/>
	<vehicle id="car_192" type="car8" route="3" depart="165" departLane = "0" departSpeed="11.180000"/>
	<vehicle id="car_193" type="car5" route="8" depart="165" departLane = "2" departSpeed="11.180000"/>
	<vehicle id="car_194" type="car7" route="1" depart="165" departLane = "0" departSpeed="11.180000"/>
	<vehicle id="car_195" type="car7" route="10" depart="165" departLane = "0" departSpeed="11.180000"/>
	<vehicle id="car_196" type="car9" route="5" depart="165" departLane = "2" departSpeed="11.180000"/>
	<vehicle id="car_197" type="car6" route="2" depart="166" departLane = "1" departSpeed="11.180000"/>
	<vehicle id="car_198" type="car7" route="0" depart="168" departLane = "1" departSpeed="11.180000"/>
	<vehicle id="car_199" type="car5" route="9" depart="169" departLane = "1" departSpeed="11.180000"/>
	<vehicle id="car_200" type="car5" route="8" depart="171" departLane = "0" departSpeed="11.180000"/>
	<vehicle id="car_201" type="car9" route="7" depart="171" departLane = "0" departSpeed="11.180000"/>
	<vehicle id="car_202" type="car7" route="5" depart="171" departLane = "1" departSpeed="11.180000"/>
	<vehicle id="car_203" type="car7" route="3" depart="172" departLane = "1" departSpeed="11.180000"/>
	<vehicle id="car_204" type="car9" route="1" depart="173" departLane = "2" departSpeed="11.180000"/>
	<vehicle id="car_205" type="car8" route="9" depart="174" departLane = "0" departSpeed="11.180000"/>
	<vehicle id="car_206" type="car9" route="1" depart="175" departLane = "0" departSpeed="11.180000"/>
	<vehicle id="car_207" type="car7" route="7" depart="175" departLane = "1" departSpeed="11.180000"/>
	<vehicle id="car_208" type="car5" route="10" depart="175" departLane = "1" departSpeed="11.180000"/>
	<vehicle id="car_209" type="car9" route="11" depart="176" departLane = "1" departSpeed="11.180000"/>
	<vehicle id="car_210" type="car9" route="6" depart="176" departLane = "2" departSpeed="11.180000"/>
	<vehicle id="car_211" type="car5" route="2" depart="178" departLane = "1" departSpeed="11.180000"/>
	<vehicle id="car_212" type="car8" route="1" depart="179" departLane = "2" departSpeed="11.180000"/>
	<vehicle id="car_213" type="car5" route="2" depart="179" departLane = "0" departSpeed="11.180000"/>
	<vehicle id="car_214" type="car8" route="6" depart="180" departLane = "1" departSpeed="11.180000"/>
	<vehicle id="car_215" type="car9" route="9" depart="181" departLane = "1" departSpeed="11.180000"/>
	<vehicle id="car_216" type="car9" route="4" depart="182" departLane = "2" departSpeed="11.180000"/>
	<vehicle id="car_217" type="car9" route="2" depart="182" departLane = "2" departSpeed="11.180000"/>
	<vehicle id="car_218" type="car5" route="10" depart="185" departLane = "2" departSpeed="11.180000"/>
	<vehicle id="car_219" type="car5" route="0" depart="186" departLane = "2" departSpeed="11.180000"/>
	<vehicle id="car_220" type="car7" route="3" depart="186" departLane = "2" departSpeed="11.180000"/>
	<vehicle id="car_221" type="car5" route="5" depart="187" departLane = "1" departSpeed="11.180000"/>
	<vehicle id="car_222" type="car9" route="6" depart="187" departLane = "0" departSpeed="11.180000"/>
	<vehicle id="car_223" type="car7" route="8" depart="189" departLane = "2" departSpeed="11.180000"/>
	<vehicle id="car_224" type="car6" route="7" depart="190" departLane = "1" departSpeed="11.180000"/>
	<vehicle id="car_225" type="car8" route="1" depart="191" departLane = "0" departSpeed="11.180000"/>
	<vehicle id="car_226" type="car5" route="5" depart="192" departLane = "2" departSpeed="11.180000"/>
	<vehicle id="car_227" type="car8" route="3" depart="193" departLane = "2" departSpeed="11.180000"/>
	<vehicle id="car_228" type="car9" route="1" depart="194" departLane = "2" departSpeed="11.180000"/>
	<vehicle id="car_229" type="car7" route="10" depart="194" departLane = "2" departSpeed="11.180000"/>
	<vehicle id="car_230" type="car5" route="8" depart="195" departLane = "1" departSpeed="11.180000"/>
	<vehicle id="car_231" type="car6" route="8" depart="196" departLane = "2" departSpeed="11.180000"/>
	<vehicle id="car_232" type="car7" route="3" depart="198" departLane = "2" departSpeed="11.180000"/>
	<vehicle id="car_233" type="car6" route="5" depart="198" departLane = "1" departSpeed="11.180000"/>
	<vehicle id="car_234" type="car5" route="0" depart="199" departLane = "1" departSpeed="11.180000"/>
	<vehicle id="car_235" type="car6" route="5" depart="199" departLane = "2" departSpeed="11.180000"/>
	<vehicle id="car_236" type="car8" route="7" depart="200" departLane = "1" departSpeed="11.180000"/>
	<vehicle id="car_237" type="car8" route="0" depart="201" departLane = "2" departSpeed="11.180000"/>
	<vehicle id="car_238" type="car8" route="1" depart="201" departLane = "2" departSpeed="11.180000"/>
	<vehicle id="car_239" type="car5" route="10" depart="201" departLane = "0" departSpeed="11.180000"/>
	<vehicle id="car_240" type="car6" route="2" depart="201" departLane = "0" departSpeed="11.180000"/>
	<vehicle id="car_241" type="car6" route="5" depart="201" departLane = "0" departSpeed="11.180000"/>
	<vehicle id="car_242" type="car8" route="9" depart="201" departLane = "2" departSpeed="11.180000"/>
	<vehicle id="car_243" type="car5" route="1" depart="202" departLane = "1" departSpeed="11.180000"/>
	<vehicle id="car_244" type="car9" route="10" depart="202" departLane = "1" departSpeed="11.180000"/>
	<vehicle id="car_245" type="car7" route="5" depart="202" departLane = "1" departSpeed="11.180000"/>
	<vehicle id="car_246" type="car6" route="8" depart="204" departLane = "0" departSpeed="11.180000"/>
	<vehicle id="car_247" type="car6" route="8" depart="206" departLane = "2" departSpeed="11.180000"/>
	<vehicle id="car_248" type="car6" route="1" depart="206" departLane = "0" departSpeed="11.180000"/>
	<vehicle id="car_249" type="car8" route="4" depart="207" departLane = "2" departSpeed="11.180000"/>
	<vehicle id="car_250" type="car8" route="6" depart="207" departLane = "0" departSpeed="11.180000"/>
	<vehicle id="car_251" type="car6" route="11" depart="208" departLane = "1" departSpeed="11.180000"/>
	<vehicle id="car_252" type="car6" route="11" depart="209" departLane = "2" departSpeed="11.180000"/>
	<vehicle id="car_253" type="car5" route="9" depart="209" departLane = "2" departSpeed="11.180000"/>
	<vehicle id="car_254" type="car7" route="1" depart="210" departLane = "0" departSpeed="11.180000"/>
	<vehicle id="car_255" type="car7" route="11" depart="211" departLane = "0" departSpeed="11.180000"/>
	<vehicle id="car_256" type="car9" route="10" depart="212" departLane = "2" departSpeed="11.180000"/>
	<vehicle id="car_257" type="car6" route="2" depart="213" departLane = "1" departSpeed="11.180000"/>
	<vehicle id="car_258" type="car6" route="9" depart="213" departLane = "2" departSpeed="11.180000"/>
	<vehicle id="car_259" type="car8" route="8" depart="214" departLane = "0" departSpeed="11.180000"/>
	<vehicle id="car_260" type="car7" route="2" depart="214" departLane = "1" departSpeed="11.180000"/>
	<vehicle id="car_261" type="car8" route="11" depart="215" departLane = "2" departSpeed="11.180000"/>
	<vehicle id="car_262" type="car9" route="7" depart="215" departLane = "0" departSpeed="11.180000"/>
	<vehicle id="car_263" type="car9" route="3" depart="216" departLane = "2" departSpeed="11.180000"/>
	<vehicle id="car_264" type="car7" route="8" depart="216" departLane = "2" departSpeed="11.180000"/>
	<vehicle id="car_265" type="car7" route="5" depart="217" departLane = "0" departSpeed="11.180000"/>
	<vehicle id="car_266" type="car6" route="9" depart="218" departLane = "0" departSpeed="11.180000"/>
	<vehicle id="car_267" type="car8" route="11" depart="219" departLane = "2" departSpeed="11.180000"/>
	<vehicle id="car_268" type="car5" route="9" depart="219" departLane = "0" departSpeed="11.180000"/>
	<vehicle id="car_269" type="car8" route="3" depart="220" departLane = "1" departSpeed="11.180000"/>
	<vehicle id="car_270" type="car9" route="7" depart="220" departLane = "1" departSpeed="11.180000"/>
	<vehicle id="car_271" type="car5" route="1" depart="221" departLane = "2" departSpeed="11.180000"/>
	<vehicle id="car_272" type="car6" route="3" depart="223" departLane = "0" departSpeed="11.180000"/>
	<vehicle id="car_273" type="car7" route="1" depart="223" departLane = "2" departSpeed="11.180000"/>
	<vehicle id="car_274" type="car6" route="3" depart="224" departLane = "2" departSpeed="11.180000"/>
	<vehicle id="car_275" type="car9" route="8" depart="224" departLane = "0" departSpeed="11.180000"/>
	<vehicle id="car_276" type="car9" route="3" depart="225" departLane = "0" departSpeed="11.180000"/>
	<vehicle id="car_277" type="car8" route="5" depart="226" departLane = "0" departSpeed="11.180000"/>
	<vehicle id="car_278" type="car9" route="8" depart="227" departLane = "1" departSpeed="11.180000"/>
	<vehicle id="car_279" type="car8" route="11" depart="228" departLane = "0" departSpeed="11.180000"/>
	<vehicle id="car_280" type="car7" route="6" depart="228" departLane = "2" departSpeed="11.180000"/>
	<vehicle id="car_281" type="car8" route="7" depart="229" departLane = "2" departSpeed="11.180000"/>
	<vehicle id="car_282" type="car5" route="6" depart="230" departLane = "1" departSpeed="11.180000"/>
	<vehicle id="car_283" type="car9" route="3" depart="231" departLane = "1" departSpeed="11.180000"/>
	<vehicle id="car_284" type="car5" route="8" depart="231" departLane = "2" departSpeed="11.180000"/>
	<vehicle id="car_285" type="car5" route="7" depart="233" departLane = "2" departSpeed="11.180000"/>