<routes>

	<vType id="car5" accel="100.0" decel="100.0" sigma="0.0" length="5" minGap="5.000000" maxSpeed="11.180000" tau="0.200000" carFollowModel="CACC" color="255,255,255"/>
	<vType id="car6" accel="100.0" decel="100.0" sigma="0.0" length="6" minGap="5.000000" maxSpeed="11.180000" tau="0.200000" carFollowModel="CACC" color="255,255,255"/>
	<vType id="car7" accel="100.0" decel="100.0" sigma="0.0" length="7" minGap="5.000000" maxSpeed="11.180000" tau="0.200000" carFollowModel="CACC" color="255,255,255"/>
	<vType id="car8" accel="100.0" decel="100.0" sigma="0.0" length="8" minGap="5.000000" maxSpeed="11.180000" tau="0.200000" carFollowModel="CACC" color="255,255,255"/>
	<vType id="car9" accel="100.0" decel="100.0" sigma="0.0" length="9" minGap="5.000000" maxSpeed="11.180000" tau="0.200000" carFollowModel="CACC" color="255,255,255"/>

	<route id="0" edges=" 001_001_1"/>
	<route id="3" edges=" 001_003_2"/>
	<route id="8" edges=" 003_001_3"/>
	<route id="11" edges=" 001_001_4"/>
	<route id="1" edges=" 001_002_1"/>
	<route id="4" edges=" 002_003_2"/>
	<route id="7" edges=" 003_002_3"/>
	<route id="10" edges=" 002_001_4"/>
	<route id="2" edges=" 001_003_1"/>
	<route id="5" edges=" 003_003_2"/>
	<route id="6" edges=" 003_003_3"/>
	<route id="9" edges=" 003_001_4"/>

	<vehicle id="car_0" type="car6" route="3" depart="0" departLane = "0" departSpeed="11.180000"/>
	<vehicle id="car_1" type="car5" route="5" depart="0" departLane = "0" departSpeed="11.180000"/>
	<vehicle id="car_2" type="car6" route="3" depart="1" departLane = "1" departSpeed="11.180000"/>
	<vehicle id="car_3" type="car8" route="1" depart="1" departLane = "2" departSpeed="11.180000"/>
	<vehicle id="car_4" type="car7" route="4" depart="1" departLane = "0" departSpeed="11.180000"/>
	<vehicle id="car_5" type="car6" route="4" depart="2" departLane = "2" departSpeed="11.180000"/>
	<vehicle id="car_6" type="car8" route="7" depart="2" departLane = "0" departSpeed="11.180000"/>
	<vehicle id="car_7" type="car7" route="6" depart="2" departLane = "0" departSpeed="11.180000"/>
	<vehicle id="car_8" type="car5" route="4" depart="3" departLane = "0" departSpeed="11.180000"/>
	<vehicle id="car_9" type="car7" route="5" depart="3" departLane = "0" departSpeed="11.180000"/>
	<vehicle id="car_10" type="car6" route="8" depart="4" departLane = "2" departSpeed="11.180000"/>
	<vehicle id="car_11" type="car7" route="2" depart="4" departLane = "0" departSpeed="11.180000"/>
	<vehicle id="car_12" type="car5" route="9" depart="4" departLane = "0" departSpeed="11.180000"/>
	<vehicle id="car_13" type="car9" route="3" depart="5" departLane = "1" departSpeed="11.180000"/>
	<vehicle id="car_14" type="car5" route="8" depart="5" departLane = "0" departSpeed="11.180000"/>
	<vehicle id="car_15" type="car7" route="11" depart="5" departLane = "0" departSpeed="11.180000"/>
	<vehicle id="car_16" type="car7" route="9" depart="5" departLane = "0" departSpeed="11.180000"/>
	<vehicle id="car_17" type="car6" route="8" depart="6" departLane = "0" departSpeed="11.180000"/>
	<vehicle id="car_18" type="car5" route="4" depart="6" departLane = "2" departSpeed="11.180000"/>
	<vehicle id="car_19" type="car6" route="3" depart="7" departLane = "2" departSpeed="11.180000"/>
	<vehicle id="car_20" type="car9" route="8" depart="8" departLane = "2" departSpeed="11.180000"/>
	<vehicle id="car_21" type="car9" route="1" depart="8" departLane = "2" departSpeed="11.180000"/>
	<vehicle id="car_22" type="car8" route="4" depart="8" departLane = "1" departSpeed="11.180000"/>
	<vehicle id="car_23" type="car9" route="2" depart="8" departLane = "0" departSpeed="11.180000"/>
	<vehicle id="car_24" type="car9" route="5" depart="8" departLane = "2" departSpeed="11.180000"/>
	<vehicle id="car_25" type="car5" route="10" depart="9" departLane = "1" departSpeed="11.180000"/>
	<vehicle id="car_26" type="car6" route="6" depart="9" departLane = "2" departSpeed="11.180000"/>
	<vehicle id="car_27" type="car7" route="3" depart="10" departLane = "1" departSpeed="11.180000"/>
	<vehicle id="car_28" type="car5" route="7" depart="10" departLane = "1" departSpeed="11.180000"/>
	<vehicle id="car_29" type="car9" route="9" depart="10" departLane = "0" departSpeed="11.180000"/>
	<vehicle id="car_30" type="car9" route="11" depart="11" departLane = "0" departSpeed="11.180000"/>
	<vehicle id="car_31" type="car6" route="5" depart="11" departLane = "1" departSpeed="11.180000"/>
	<vehicle id="car_32" type="car6" route="9" depart="11" departLane = "2" departSpeed="11.180000"/>
	<vehicle id="car_33" type="car8" route="8" depart="13" departLane = "1" departSpeed="11.180000"/>
	<vehicle id="car_34" type="car5" route="11" depart="13" departLane = "0" departSpeed="11.180000"/>
	<vehicle id="car_35" type="car9" route="1" depart="13" departLane = "1" departSpeed="11.180000"/>
	<vehicle id="car_36" type="car7" route="10" depart="13" departLane = "2" departSpeed="11.180000"/>
	<vehicle id="car_37" type="car5" route="9" depart="13" departLane = "2" departSpeed="11.180000"/>
	<vehicle id="car_38" type="car7" route="0" depart="14" departLane = "1" departSpeed="11.180000"/>
	<vehicle id="car_39" type="car8" route="1" depart="14" departLane = "2" departSpeed="11.180000"/>
	<vehicle id="car_40" type="car5" route="0" depart="16" departLane = "1" departSpeed="11.180000"/>
	<vehicle id="car_41" type="car5" route="4" depart="16" departLane = "2" departSpeed="11.180000"/>
	<vehicle id="car_42" type="car6" route="5" depart="16" departLane = "0" departSpeed="11.180000"/>
	<vehicle id="car_43" type="car6" route="0" depart="17" departLane = "0" departSpeed="11.180000"/>
	<vehicle id="car_44" type="car8" route="3" depart="17" departLane = "2" departSpeed="11.180000"/>
	<vehicle id="car_45" type="car5" route="4" depart="17" departLane = "0" departSpeed="11.180000"/>
	<vehicle id="car_46" type="car5" route="7" depart="17" departLane = "2" departSpeed="11.180000"/>
	<vehicle id="car_47" type="car9" route="10" depart="18" departLane = "1" departSpeed="11.180000"/>
	<vehicle id="car_48" type="car9" route="2" depart="18" departLane = "0" departSpeed="11.180000"/>
	<vehicle id="car_49" type="car9" route="8" depart="19" departLane = "0" departSpeed="11.180000"/>
	<vehicle id="car_50" type="car5" route="11" depart="19" departLane = "2" departSpeed="11.180000"/>
	<vehicle id="car_51" type="car9" route="2" depart="19" departLane = "2" departSpeed="11.180000"/>
	<vehicle id="car_52" type="car8" route="11" depart="20" departLane = "2" departSpeed="11.180000"/>
	<vehicle id="car_53" type="car8" route="10" depart="20" departLane = "0" departSpeed="11.180000"/>
	<vehicle id="car_54" type="car8" route="6" depart="21" departLane = "1" departSpeed="11.180000"/>
	<vehicle id="car_55" type="car8" route="3" depart="22" departLane = "2" departSpeed="11.180000"/>
	<vehicle id="car_56" type="car9" route="8" depart="22" departLane = "2" departSpeed="11.180000"/>
	<vehicle id="car_57" type="car9" route="11" depart="22" departLane = "1" departSpeed="11.180000"/>
	<vehicle id="car_58" type="car8" route="1" depart="22" departLane = "0" departSpeed="11.180000"/>
	<vehicle id="car_59" type="car6" route="4" depart="22" departLane = "2" departSpeed="11.180000"/>
	<vehicle id="car_60" type="car7" route="6" depart="22" departLane = "2" departSpeed="11.180000"/>
	<vehicle id="car_61" type="car5" route="4" depart="23" departLane = "2" departSpeed="11.180000"/>
	<vehicle id="car_62" type="car6" route="11" depart="24" departLane = "0" departSpeed="11.180000"/>
	<vehicle id="car_63" type="car8" route="1" depart="24" departLane = "0" departSpeed="11.180000"/>
	<vehicle id="car_64" type="car5" route="4" depart="24" departLane = "0" departSpeed="11.180000"/>
	<vehicle id="car_65" type="car6" route="5" depart="24" departLane = "1" departSpeed="11.180000"/>
	<vehicle id="car_66" type="car6" route="6" depart="24" departLane = "2" departSpeed="11.180000"/>
	<vehicle id="car_67" type="car9" route="1" depart="25" departLane = "0" departSpeed="11.180000"/>
	<vehicle id="car_68" type="car8" route="4" depart="25" departLane = "0" departSpeed="11.180000"/>
	<vehicle id="car_69" type="car6" route="7" depart="25" departLane = "0" departSpeed="11.180000"/>
	<vehicle id="car_70" type="car6" route="6" depart="25" departLane = "2" departSpeed="11.180000"/>
	<vehicle id="car_71" type="car9" route="3" depart="26" departLane = "2" departSpeed="11.180000"/>
	<vehicle id="car_72" type="car5" route="11" depart="26" departLane = "0" departSpeed="11.180000"/>
	<vehicle id="car_73" type="car5" route="6" depart="26" departLane = "0" departSpeed="11.180000"/>
	<vehicle id="car_74" type="car8" route="0" depart="27" departLane = "1" departSpeed="11.180000"/>
	<vehicle id="car_75" type="car6" route="11" depart="27" departLane = "2" departSpeed="11.180000"/>
	<vehicle id="car_76" type="car5" route="1" depart="27" departLane = "2" departSpeed="11.180000"/>
	<vehicle id="car_77" type="car6" route="10" depart="27" departLane = "2" departSpeed="11.180000"/>
	<vehicle id="car_78" type="car6" route="2" depart="27" departLane = "1" departSpeed="11.180000"/>
	<vehicle id="car_79" type="car5" route="6" depart="27" departLane = "2" departSpeed="11.180000"/>
	<vehicle id="car_80" type="car6" route="0" depart="28" departLane = "1" departSpeed="11.180000"/>
	<vehicle id="car_81" type="car8" route="1" depart="28" departLane = "1" departSpeed="11.180000"/>
	<vehicle id="car_82" type="car7" route="7" depart="28" departLane = "2" departSpeed="11.180000"/>
	<vehicle id="car_83" type="car5" route="10" depart="28" departLane = "0" departSpeed="11.180000"/>
	<vehicle id="car_84" type="car6" route="6" depart="28" departLane = "2" departSpeed="11.180000"/>
	<vehicle id="car_85" type="car7" route="7" depart="29" departLane = "0" departSpeed="11.180000"/>
	<vehicle id="car_86" type="car8" route="5" depart="29" departLane = "1" departSpeed="11.180000"/>
	<vehicle id="car_87" type="car9" route="0" depart="30" departLane = "2" departSpeed="11.180000"/>
	<vehicle id="car_88" type="car7" route="11" depart="30" departLane = "2" departSpeed="11.180000"/>
	<vehicle id="car_89" type="car7" route="9" depart="30" departLane = "2" departSpeed="11.180000"/>
	<vehicle id="car_90" type="car7" route="0" depart="31" departLane = "0" departSpeed="11.180000"/>
	<vehicle id="car_91" type="car5" route="6" depart="31" departLane = "0" departSpeed="11.180000"/>
	<vehicle id="car_92" type="car8" route="9" depart="31" departLane = "2" departSpeed="11.180000"/>
	<vehicle id="car_93" type="car7" route="11" depart="32" departLane = "0" departSpeed="11.180000"/>
	<vehicle id="car_94" type="car8" route="5" depart="32" departLane = "0" departSpeed="11.180000"/>
	<vehicle id="car_95" type="car8" route="6" depart="32" departLane = "1" departSpeed="11.180000"/>
	<vehicle id="car_96" type="car7" route="7" depart="33" departLane = "1" departSpeed="11.180000"/>
	<vehicle id="car_97" type="car9" route="5" depart="33" departLane = "2" departSpeed="11.180000"/>
	<vehicle id="car_98" type="car5" route="11" depart="35" departLane = "2" departSpeed="11.180000"/>
	<vehicle id="car_99" type="car9" route="1" depart="35" departLane = "0" departSpeed="11.180000"/>
	<vehicle id="car_100" type="car8" route="8" depart="36" departLane = "0" departSpeed="11.180000"/>
	<vehicle id="car_101" type="car9" route="11" depart="36" departLane = "1" departSpeed="11.180000"/>
	<vehicle id="car_102" type="car6" route="5" depart="36" departLane = "2" departSpeed="11.180000"/>
	<vehicle id="car_103" type="car6" route="11" depart="37" departLane = "0" departSpeed="11.180000"/>
	<vehicle id="car_104" type="car7" route="4" depart="37" departLane = "2" departSpeed="11.180000"/>
	<vehicle id="car_105" type="car9" route="0" depart="38" departLane = "2" departSpeed="11.180000"/>
	<vehicle id="car_106" type="car9" route="9" depart="38" departLane = "1" departSpeed="11.180000"/>
	<vehicle id="car_107" type="car7" route="3" depart="39" departLane = "2" departSpeed="11.180000"/>
	<vehicle id="car_108" type="car9" route="4" depart="39" departLane = "0" departSpeed="11.180000"/>
	<vehicle id="car_109" type="car6" route="6" depart="39" departLane = "0" departSpeed="11.180000"/>
	<vehicle id="car_110" type="car8" route="1" depart="41" departLane = "0" departSpeed="11.180000"/>
	<vehicle id="car_111" type="car9" route="2" depart="41" departLane = "2" departSpeed="11.180000"/>
	<vehicle id="car_112" type="car5" route="3" depart="42" departLane = "1" departSpeed="11.180000"/>
	<vehicle id="car_113" type="car8" route="4" depart="42" departLane = "0" departSpeed="11.180000"/>
	<vehicle id="car_114" type="car8" route="7" depart="42" departLane = "0" departSpeed="11.180000"/>
	<vehicle id="car_115" type="car6" route="11" depart="43" departLane = "0" departSpeed="11.180000"/>
	<vehicle id="car_116" type="car9" route="0" depart="44" departLane = "1" departSpeed="11.180000"/>
	<vehicle id="car_117" type="car5" route="2" depart="44" departLane = "0" departSpeed="11.180000"/>
	<vehicle id="car_118" type="car6" route="4" depart="45" departLane = "1" departSpeed="11.180000"/>
	<vehicle id="car_119" type="car8" route="5" depart="45" departLane = "2" departSpeed="11.180000"/>
	<vehicle id="car_120" type="car9" route="11" depart="46" departLane = "1" departSpeed="11.180000"/>
	<vehicle id="car_121" type="car7" route="4" depart="46" departLane = "0" departSpeed="11.180000"/>
	<vehicle id="car_122" type="car9" route="5" depart="46" departLane = "1" departSpeed="11.180000"/>
	<vehicle id="car_123" type="car6" route="9" depart="46" departLane = "1" departSpeed="11.180000"/>
	<vehicle id="car_124" type="car9" route="1" depart="47" departLane = "2" departSpeed="11.180000"/>
	<vehicle id="car_125" type="car6" route="7" depart="47" departLane = "2" departSpeed="11.180000"/>
	<vehicle id="car_126" type="car5" route="2" depart="47" departLane = "1" departSpeed="11.180000"/>
	<vehicle id="car_127" type="car8" route="7" depart="48" departLane = "2" departSpeed="11.180000"/>
	<vehicle id="car_128" type="car6" route="9" depart="48" departLane = "1" departSpeed="11.180000"/>
	<vehicle id="car_129" type="car7" route="3" depart="49" departLane = "0" departSpeed="11.180000"/>
	<vehicle id="car_130" type="car6" route="8" depart="49" departLane = "1" departSpeed="11.180000"/>
	<vehicle id="car_131" type="car7" route="11" depart="49" departLane = "2" departSpeed="11.180000"/>
	<vehicle id="car_132" type="car8" route="10" depart="49" departLane = "0" departSpeed="11.180000"/>
	<vehicle id="car_133" type="car7" route="5" depart="49" departLane = "0" departSpeed="11.180000"/>
	<vehicle id="car_134" type="car5" route="9" depart="49" departLane = "2" departSpeed="11.180000"/>
	<vehicle id="car_135" type="car7" route="4" depart="50" departLane = "2" departSpeed="11.180000"/>
	<vehicle id="car_136" type="car8" route="9" depart="50" departLane = "0" departSpeed="11.180000"/>
	<vehicle id="car_137" type="car8" route="8" depart="51" departLane = "2" departSpeed="11.180000"/>
	<vehicle id="car_138" type="car7" route="10" depart="51" departLane = "1" departSpeed="11.180000"/>
	<vehicle id="car_139" type="car5" route="5" depart="51" departLane = "1" departSpeed="11.180000"/>
	<vehicle id="car_140" type="car5" route="2" depart="52" departLane = "1" departSpeed="11.180000"/>
	<vehicle id="car_141" type="car8" route="6" depart="52" departLane = "1" departSpeed="11.180000"/>
	<vehicle id="car_142" type="car7" route="9" depart="52" departLane = "0" departSpeed="11.180000"/>
	<vehicle id="car_143" type="car6" route="8" depart="53" departLane = "2" departSpeed="11.180000"/>
	<vehicle id="car_144" type="car9" route="4" depart="53" departLane = "1" departSpeed="11.180000"/>
	<vehicle id="car_145" type="car7" route="6" depart="56" departLane = "0" departSpeed="11.180000"/>
	<vehicle id="car_146" type="car6" route="0" depart="57" departLane = "1" departSpeed="11.180000"/>
	<vehicle id="car_147" type="car7" route="3" depart="57" departLane = "1" departSpeed="11.180000"/>
	<vehicle id="car_148" type="car8" route="9" depart="57" departLane = "1" departSpeed="11.180000"/>
	<vehicle id="car_149" type="car7" route="0" depart="58" departLane = "0" departSpeed="11.180000"/>
	<vehicle id="car_150" type="car5" route="5" depart="58" departLane = "0" departSpeed="11.180000"/>
	<vehicle id="car_151" type="car8" route="0" depart="59" departLane = "2" departSpeed="11.180000"/>
	<vehicle id="car_152" type="car7" route="1" depart="59" departLane = "0" departSpeed="11.180000"/>
	<vehicle id="car_153" type="car5" route="2" depart="59" departLane = "2" departSpeed="11.180000"/>
	<vehicle id="car_154" type="car5" route="5" depart="59" departLane = "0" departSpeed="11.180000"/>
	<vehicle id="car_155" type="car7" route="6" depart="59" departLane = "2" departSpeed="11.180000"/>
	<vehicle id="car_156" type="car9" route="11" depart="60" departLane = "1" departSpeed="11.180000"/>
	<vehicle id="car_157" type="car5" route="7" depart="60" departLane = "2" departSpeed="11.180000"/>
	<vehicle id="car_158" type="car7" route="9" depart="60" departLane = "2" departSpeed="11.180000"/>
	<vehicle id="car_159" type="car7" route="3" depart="61" departLane = "1" departSpeed="11.180000"/>
	<vehicle id="car_160" type="car5" route="0" depart="63" departLane = "2" departSpeed="11.180000"/>
	<vehicle id="car_161" type="car7" route="8" depart="63" departLane = "0" departSpeed="11.180000"/>
	<vehicle id="car_162" type="car8" route="7" depart="63" departLane = "0" departSpeed="11.180000"/>
	<vehicle id="car_163" type="car6" route="11" depart="64" departLane = "1" departSpeed="11.180000"/>
	<vehicle id="car_164" type="car7" route="10" depart="64" departLane = "1" departSpeed="11.180000"/>
	<vehicle id="car_165" type="car5" route="0" depart="65" departLane = "1" departSpeed="11.180000"/>
	<vehicle id="car_166" type="car7" route="3" depart="65" departLane = "1" departSpeed="11.180000"/>
	<vehicle id="car_167" type="car5" route="7" depart="65" departLane = "1" departSpeed="11.180000"/>
	<vehicle id="car_168" type="car7" route="7" depart="66" departLane = "0" departSpeed="11.180000"/>
	<vehicle id="car_169" type="car8" route="5" depart="66" departLane = "2" departSpeed="11.180000"/>
	<vehicle id="car_170" type="car9" route="2" depart="67" departLane = "0" departSpeed="11.180000"/>
	<vehicle id="car_171" type="car6" route="8" depart="68" departLane = "0" departSpeed="11.180000"/>
	<vehicle id="car_172" type="car6" route="10" depart="68" departLane = "1" departSpeed="11.180000"/>
	<vehicle id="car_173" type="car9" route="9" depart="69" departLane = "1" departSpeed="11.180000"/>
	<vehicle id="car_174" type="car8" route="0" depart="70" departLane = "0" departSpeed="11.180000"/>
	<vehicle id="car_175" type="car6" route="1" depart="70" departLane = "2" departSpeed="11.180000"/>
	<vehicle id="car_176" type="car8" route="7" depart="70" departLane = "2" departSpeed="11.180000"/>
	<vehicle id="car_177" type="car5" route="2" depart="70" departLane = "0" departSpeed="11.180000"/>
	<vehicle id="car_178" type="car8" route="5" depart="70" departLane = "0" departSpeed="11.180000"/>
	<vehicle id="car_179" type="car9" route="6" depart="70" departLane = "1" departSpeed="11.180000"/>
	<vehicle id="car_180" type="car9" route="7" depart="71" departLane = "2" departSpeed="11.180000"/>
	<vehicle id="car_181" type="car6" route="10" depart="71" departLane = "2" departSpeed="11.180000"/>
	<vehicle id="car_182" type="car5" route="6" depart="71" departLane = "0" departSpeed="11.180000"/>
	<vehicle id="car_183" type="car7" route="11" depart="72" departLane = "2" departSpeed="11.180000"/>
	<vehicle id="car_184" type="car5" route="5" depart="72" departLane = "1" departSpeed="11.180000"/>
	<vehicle id="car_185" type="car6" route="7" depart="73" departLane = "2" departSpeed="11.180000"/>
	<vehicle id="car_186" type="car6" route="10" depart="73" departLane = "1" departSpeed="11.180000"/>
	<vehicle id="car_187" type="car7" route="4" depart="75" departLane = "1" departSpeed="11.180000"/>
	<vehicle id="car_188" type="car8" route="11" depart="76" departLane = "2" departSpeed="11.180000"/>
	<vehicle id="car_189" type="car9" route="5" depart="76" departLane = "0" departSpeed="11.180000"/>
	<vehicle id="car_190" type="car5" route="10" depart="77" departLane = "0" departSpeed="11.180000"/>
	<vehicle id="car_191" type="car7" route="5" depart="77" departLane = "2" departSpeed="11.180000"/>
	<vehicle id="car_192" type="car7" route="0" depart="78" departLane = "1" departSpeed="11.180000"/>
	<vehicle id="car_193" type="car9" route="10" depart="79" departLane = "1" departSpeed="11.180000"/>
	<vehicle id="car_194" type="car8" route="0" depart="80" departLane = "2" departSpeed="11.180000"/>
	<vehicle id="car_195" type="car9" route="11" depart="80" departLane = "1" departSpeed="11.180000"/>
	<vehicle id="car_196" type="car8" route="7" depart="81" departLane = "2" departSpeed="11.180000"/>
	<vehicle id="car_197" type="car5" route="5" depart="81" departLane = "1" departSpeed="11.180000"/>
	<vehicle id="car_198" type="car9" route="6" depart="81" departLane = "0" departSpeed="11.180000"/>
	<vehicle id="car_199" type="car6" route="9" depart="81" departLane = "1" departSpeed="11.180000"/>
	<vehicle id="car_200" type="car5" route="0" depart="82" departLane = "2" departSpeed="11.180000"/>
	<vehicle id="car_201" type="car7" route="6" depart="82" departLane = "2" departSpeed="11.180000"/>
	<vehicle id="car_202" type="car6" route="9" depart="82" departLane = "2" departSpeed="11.180000"/>
	<vehicle id="car_203" type="car9" route="3" depart="83" departLane = "0" departSpeed="11.180000"/>
	<vehicle id="car_204" type="car7" route="7" depart="83" departLane = "1" departSpeed="11.180000"/>
	<vehicle id="car_205" type="car5" route="9" depart="83" departLane = "0" departSpeed="11.180000"/>
	<vehicle id="car_206" type="car6" route="5" depart="84" departLane = "0" departSpeed="11.180000"/>
	<vehicle id="car_207" type="car8" route="8" depart="85" departLane = "0" departSpeed="11.180000"/>
	<vehicle id="car_208" type="car7" route="1" depart="85" departLane = "1" departSpeed="11.180000"/>
	<vehicle id="car_209" type="car8" route="4" depart="85" departLane = "0" departSpeed="11.180000"/>
	<vehicle id="car_210" type="car6" route="6" depart="85" departLane = "1" departSpeed="11.180000"/>
	<vehicle id="car_211" type="car9" route="9" depart="85" departLane = "1" departSpeed="11.180000"/>
	<vehicle id="car_212" type="car7" route="8" depart="86" departLane = "0" departSpeed="11.180000"/>
	<vehicle id="car_213" type="car5" route="1" depart="86" departLane = "2" departSpeed="11.180000"/>
	<vehicle id="car_214" type="car7" route="10" depart="86" departLane = "1" departSpeed="11.180000"/>
	<vehicle id="car_215" type="car7" route="6" depart="86" departLane = "1" departSpeed="11.180000"/>
	<vehicle id="car_216" type="car9" route="4" depart="87" departLane = "1" departSpeed="11.180000"/>
	<vehicle id="car_217" type="car5" route="7" depart="87" departLane = "2" departSpeed="11.180000"/>
	<vehicle id="car_218" type="car5" route="7" depart="88" departLane = "0" departSpeed="11.180000"/>
	<vehicle id="car_219" type="car7" route="10" depart="88" departLane = "2" departSpeed="11.180000"/>
	<vehicle id="car_220" type="car5" route="9" depart="88" departLane = "1" departSpeed="11.180000"/>
	<vehicle id="car_221" type="car5" route="3" depart="89" departLane = "0" departSpeed="11.180000"/>
	<vehicle id="car_222" type="car5" route="8" depart="89" departLane = "1" departSpeed="11.180000"/>
	<vehicle id="car_223" type="car9" route="11" depart="89" departLane = "0" departSpeed="11.180000"/>
	<vehicle id="car_224" type="car9" route="1" depart="89" departLane = "1" departSpeed="11.180000"/>
	<vehicle id="car_225" type="car6" route="6" depart="89" departLane = "0" departSpeed="11.180000"/>
	<vehicle id="car_226" type="car8" route="7" depart="90" departLane = "1" departSpeed="11.180000"/>
	<vehicle id="car_227" type="car9" route="3" depart="91" departLane = "1" departSpeed="11.180000"/>
	<vehicle id="car_228" type="car6" route="11" depart="91" departLane = "1" departSpeed="11.180000"/>
	<vehicle id="car_229" type="car5" route="0" depart="92" departLane = "0" departSpeed="11.180000"/>
	<vehicle id="car_230" type="car9" route="10" depart="92" departLane = "1" departSpeed="11.180000"/>
	<vehicle id="car_231" type="car9" route="6" depart="92" departLane = "0" departSpeed="11.180000"/>
	<vehicle id="car_232" type="car6" route="0" depart="93" departLane = "1" departSpeed="11.180000"/>
	<vehicle id="car_233" type="car9" route="7" depart="93" departLane = "0" departSpeed="11.180000"/>
	<vehicle id="car_234" type="car6" route="5" depart="93" departLane = "2" departSpeed="11.180000"/>
	<vehicle id="car_235" type="car7" route="1" depart="94" departLane = "2" departSpeed="11.180000"/>
	<vehicle id="car_236" type="car6" route="4" depart="94" departLane = "2" departSpeed="11.180000"/>
	<vehicle id="car_237" type="car7" route="10" depart="94" departLane = "1" departSpeed="11.180000"/>
	<vehicle id="car_238" type="car9" route="5" depart="94" departLane = "1" departSpeed="11.180000"/>
	<vehicle id="car_239" type="car7" route="0" depart="95" departLane = "0" departSpeed="11.180000"/>
	<vehicle id="car_240" type="car8" route="4" depart="95" departLane = "0" departSpeed="11.180000"/>
	<vehicle id="car_241" type="car7" route="6" depart="95" departLane = "0" departSpeed="11.180000"/>
	<vehicle id="car_242" type="car7" route="3" depart="96" departLane = "1" departSpeed="11.180000"/>
	<vehicle id="car_243" type="car8" route="7" depart="96" departLane = "1" departSpeed="11.180000"/>
	<vehicle id="car_244" type="car8" route="5" depart="96" departLane = "2" departSpeed="11.180000"/>
	<vehicle id="car_245" type="car9" route="9" depart="96" departLane = "2" departSpeed="11.180000"/>
	<vehicle id="car_246" type="car8" route="11" depart="97" departLane = "1" departSpeed="11.180000"/>
	<vehicle id="car_247" type="car6" route="1" depart="97" departLane = "2" departSpeed="11.180000"/>
	<vehicle id="car_248" type="car8" route="6" depart="97" departLane = "0" departSpeed="11.180000"/>
	<vehicle id="car_249" type="car8" route="8" depart="98" departLane = "2" departSpeed="11.180000"/>
	<vehicle id="car_250" type="car7" route="7" depart="98" departLane = "2" departSpeed="11.180000"/>
	<vehicle id="car_251" type="car6" route="0" depart="99" departLane = "2" departSpeed="11.180000"/>
	<vehicle id="car_252" type="car9" route="8" depart="99" departLane = "1" departSpeed="11.180000"/>
	<vehicle id="car_253" type="car9" route="7" depart="99" departLane = "2" departSpeed="11.180000"/>
	<vehicle id="car_254" type="car8" route="10" depart="99" departLane = "0" departSpeed="11.180000"/>
	<vehicle id="car_255" type="car7" route="7" depart="100" departLane = "2" departSpeed="11.180000"/>
	<vehicle id="car_256" type="car8" route="2" depart="100" departLane = "1" departSpeed="11.180000"/>
	<vehicle id="car_257" type="car6" route="5" depart="100" departLane = "1" departSpeed="11.180000"/>
	<vehicle id="car_258" type="car6" route="7" depart="101" departLane = "1" departSpeed="11.180000"/>
	<vehicle id="car_259" type="car8" route="10" depart="101" departLane = "1" departSpeed="11.180000"/>
	<vehicle id="car_260" type="car8" route="8" depart="102" departLane = "0" departSpeed="11.180000"/>
	<vehicle id="car_261" type="car8" route="7" depart="102" departLane = "0" departSpeed="11.180000"/>
	<vehicle id="car_262" type="car8" route="3" depart="103" departLane = "0" departSpeed="11.180000"/>
	<vehicle id="car_263" type="car7" route="6" depart="103" departLane = "2" departSpeed="11.180000"/>
	<vehicle id="car_264" type="car9" route="8" depart="104" departLane = "2" departSpeed="11.180000"/>
	<vehicle id="car_265" type="car7" route="4" depart="104" departLane = "0" departSpeed="11.180000"/>
	<vehicle id="car_266" type="car8" route="6" depart="104" departLane = "2" departSpeed="11.180000"/>
	<vehicle id="car_267" type="car6" route="0" depart="105" departLane = "2" departSpeed="11.180000"/>
	<vehicle id="car_268" type="car9" route="6" depart="105" departLane = "1" departSpeed="11.180000"/>
	<vehicle id="car_269" type="car9" route="0" depart="106" departLane = "0" departSpeed="11.180000"/>
	<vehicle id="car_270" type="car9" route="10" depart="107" departLane = "0" departSpeed="11.180000"/>
	<vehicle id="car_271" type="car6" route="5" depart="107" departLane = "1" departSpeed="11.180000"/>
	<vehicle id="car_272" type="car7" route="6" depart="107" departLane = "1" departSpeed="11.180000"/>
	<vehicle id="car_273" type="car8" route="3" depart="109" departLane = "1" departSpeed="11.180000"/>
	<vehicle id="car_274" type="car6" route="1" depart="109" departLane = "2" departSpeed="11.180000"/>
	<vehicle id="car_275" type="car7" route="7" depart="109" departLane = "2" departSpeed="11.180000"/>
	<vehicle id="car_276" type="car9" route="3" depart="110" departLane = "1" departSpeed="11.180000"/>
	<vehicle id="car_277" type="car6" route="1" depart="110" departLane = "0" departSpeed="11.180000"/>
	<vehicle id="car_278" type="car6" route="10" depart="110" departLane = "0" departSpeed="11.180000"/>
	<vehicle id="car_279" type="car6" route="6" depart="110" departLane = "2" departSpeed="11.180000"/>
	<vehicle id="car_280" type="car7" route="11" depart="111" departLane = "1" departSpeed="11.180000"/>
	<vehicle id="car_281" type="car5" route="7" depart="111" departLane = "1" departSpeed="11.180000"/>
	<vehicle id="car_282" type="car7" route="3" depart="112" departLane = "1" departSpeed="11.180000"/>
	<vehicle id="car_283" type="car8" route="7" depart="112" departLane = "0" departSpeed="11.180000"/>
	<vehicle id="car_284" type="car8" route="5" depart="112" departLane = "0" departSpeed="11.180000"/>
	<vehicle id="car_285" type="car8" route="2" depart="113" departLane = "1" departSpeed="11.180000"/>
	<vehicle id="car_286" type="car9" route="11" depart="114" departLane = "2" departSpeed="11.180000"/>