<routes>

	<vType id="car5" accel="100.0" decel="100.0" sigma="0.0" length="5" minGap="5.000000" maxSpeed="11.180000" tau="0.200000" carFollowModel="CACC" color="255,255,255"/>
	<vType id="car6" accel="100.0" decel="100.0" sigma="0.0" length="6" minGap="5.000000" maxSpeed="11.180000" tau="0.200000" carFollowModel="CACC" color="255,255,255"/>
	<vType id="car7" accel="100.0" decel="100.0" sigma="0.0" length="7" minGap="5.000000" maxSpeed="11.180000" tau="0.200000" carFollowModel="CACC" color="255,255,255"/>
	<vType id="car8" accel="100.0" decel="100.0" sigma="0.0" length="8" minGap="5.000000" maxSpeed="11.180000" tau="0.200000" carFollowModel="CACC" color="255,255,255"/>
	<vType id="car9" accel="100.0" decel="100.0" sigma="0.0" length="9" minGap="5.000000" maxSpeed="11.180000" tau="0.200000" carFollowModel="CACC" color="255,255,255"/>

	<route id="0" edges=" 001_001_1"/>
	<route id="4" edges=" 001_004_2"/>
	<route id="11" edges=" 004_001_3"/>
	<route id="15" edges=" 001_001_4"/>
	<route id="1" edges=" 001_002_1"/>
	<route id="5" edges=" 002_004_2"/>
	<route id="10" edges=" 004_002_3"/>
	<route id="14" edges=" 002_001_4"/>
	<route id="2" edges=" 001_003_1"/>
	<route id="6" edges=" 003_004_2"/>
	<route id="9" edges=" 004_003_3"/>
	<route id="13" edges=" 003_001_4"/>
	<route id="3" edges=" 001_004_1"/>
	<route id="7" edges=" 004_004_2"/>
	<route id="8" edges=" 004_004_3"/>
	<route id="12" edges=" 004_001_4"/>

	<vehicle id="car_0" type="car5" route="0" depart="0" departLane = "1" departSpeed="11.180000"/>
	<vehicle id="car_1" type="car7" route="1" depart="0" departLane = "0" departSpeed="11.180000"/>
	<vehicle id="car_2" type="car8" route="8" depart="0" departLane = "2" departSpeed="11.180000"/>
	<vehicle id="car_3" type="car9" route="0" depart="1" departLane = "2" departSpeed="11.180000"/>
	<vehicle id="car_4" type="car9" route="4" depart="1" departLane = "1" departSpeed="11.180000"/>
	<vehicle id="car_5" type="car7" route="1" depart="1" departLane = "1" departSpeed="11.180000"/>
	<vehicle id="car_6" type="car5" route="10" depart="1" departLane = "1" departSpeed="11.180000"/>
	<vehicle id="car_7" type="car6" route="3" depart="1" departLane = "1" departSpeed="11.180000"/>
	<vehicle id="car_8" type="car7" route="7" depart="1" departLane = "2" departSpeed="11.180000"/>
	<vehicle id="car_9" type="car6" route="8" depart="1" departLane = "2" departSpeed="11.180000"/>
	<vehicle id="car_10" type="car5" route="12" depart="1" departLane = "1" departSpeed="11.180000"/>
	<vehicle id="car_11" type="car6" route="5" depart="2" departLane = "2" departSpeed="11.180000"/>
	<vehicle id="car_12" type="car9" route="10" depart="2" departLane = "1" departSpeed="11.180000"/>
	<vehicle id="car_13" type="car6" route="9" depart="2" departLane = "2" departSpeed="11.180000"/>
	<vehicle id="car_14" type="car5" route="13" depart="2" departLane = "0" departSpeed="11.180000"/>
	<vehicle id="car_15" type="car5" route="3" depart="2" departLane = "2" departSpeed="11.180000"/>
	<vehicle id="car_16" type="car5" route="7" depart="2" departLane = "0" departSpeed="11.180000"/>
	<vehicle id="car_17" type="car5" route="12" depart="2" departLane = "1" departSpeed="11.180000"/>
	<vehicle id="car_18" type="car7" route="4" depart="3" departLane = "2" departSpeed="11.180000"/>
	<vehicle id="car_19" type="car6" route="11" depart="3" departLane = "1" departSpeed="11.180000"/>
	<vehicle id="car_20" type="car6" route="15" depart="3" departLane = "2" departSpeed="11.180000"/>
	<vehicle id="car_21" type="car6" route="1" depart="3" departLane = "0" departSpeed="11.180000"/>
	<vehicle id="car_22" type="car9" route="10" depart="3" departLane = "1" departSpeed="11.180000"/>
	<vehicle id="car_23" type="car5" route="3" depart="3" departLane = "0" departSpeed="11.180000"/>
	<vehicle id="car_24" type="car8" route="12" depart="3" departLane = "2" departSpeed="11.180000"/>
	<vehicle id="car_25" type="car9" route="11" depart="4" departLane = "2" departSpeed="11.180000"/>
	<vehicle id="car_26" type="car9" route="10" depart="4" departLane = "0" departSpeed="11.180000"/>
	<vehicle id="car_27" type="car5" route="2" depart="4" departLane = "1" departSpeed="11.180000"/>
	<vehicle id="car_28" type="car9" route="3" depart="4" departLane = "0" departSpeed="11.180000"/>
	<vehicle id="car_29" type="car9" route="7" depart="4" departLane = "2" departSpeed="11.180000"/>
	<vehicle id="car_30" type="car8" route="0" depart="5" departLane = "0" departSpeed="11.180000"/>
	<vehicle id="car_31" type="car5" route="11" depart="5" departLane = "0" departSpeed="11.180000"/>
	<vehicle id="car_32" type="car8" route="10" depart="5" departLane = "1" departSpeed="11.180000"/>
	<vehicle id="car_33" type="car7" route="6" depart="5" departLane = "1" departSpeed="11.180000"/>
	<vehicle id="car_34" type="car6" route="9" depart="5" departLane = "1" departSpeed="11.180000"/>
	<vehicle id="car_35" type="car5" route="13" depart="5" departLane = "1" departSpeed="11.180000"/>
	<vehicle id="car_36" type="car9" route="3" depart="5" departLane = "2" departSpeed="11.180000"/>
	<vehicle id="car_37" type="car6" route="7" depart="5" departLane = "2" departSpeed="11.180000"/>
	<vehicle id="car_38" type="car5" route="0" depart="6" departLane = "1" departSpeed="11.180000"/>
	<vehicle id="car_39" type="car6" route="1" depart="6" departLane = "1" departSpeed="11.180000"/>
	<vehicle id="car_40" type="car5" route="10" depart="6" departLane = "0" departSpeed="11.180000"/>
	<vehicle id="car_41" type="car9" route="7" depart="6" departLane = "1" departSpeed="11.180000"/>
	<vehicle id="car_42" type="car5" route="11" depart="7" departLane = "2" departSpeed="11.180000"/>
	<vehicle id="car_43" type="car5" route="1" depart="7" departLane = "0" departSpeed="11.180000"/>
	<vehicle id="car_44" type="car7" route="13" depart="7" departLane = "2" departSpeed="11.180000"/>
	<vehicle id="car_45" type="car6" route="7" depart="7" departLane = "0" departSpeed="11.180000"/>
	<vehicle id="car_46" type="car7" route="15" depart="8" departLane = "1" departSpeed="11.180000"/>
	<vehicle id="car_47" type="car9" route="7" depart="8" departLane = "1" departSpeed="11.180000"/>
	<vehicle id="car_48" type="car6" route="12" depart="8" departLane = "0" departSpeed="11.180000"/>
	<vehicle id="car_49" type="car9" route="11" depart="9" departLane = "0" departSpeed="11.180000"/>
	<vehicle id="car_50" type="car5" route="15" depart="9" departLane = "1" departSpeed="11.180000"/>
	<vehicle id="car_51" type="car9" route="6" depart="9" departLane = "2" departSpeed="11.180000"/>
	<vehicle id="car_52" type="car6" route="3" depart="9" departLane = "0" departSpeed="11.180000"/>
	<vehicle id="car_53" type="car6" route="12" depart="9" departLane = "0" departSpeed="11.180000"/>
	<vehicle id="car_54" type="car8" route="0" depart="10" departLane = "2" departSpeed="11.180000"/>
	<vehicle id="car_55" type="car7" route="11" depart="10" departLane = "0" departSpeed="11.180000"/>
	<vehicle id="car_56" type="car6" route="15" depart="10" departLane = "0" departSpeed="11.180000"/>
	<vehicle id="car_57" type="car9" route="0" depart="11" departLane = "1" departSpeed="11.180000"/>
	<vehicle id="car_58" type="car6" route="4" depart="11" departLane = "2" departSpeed="11.180000"/>
	<vehicle id="car_59" type="car6" route="11" depart="11" departLane = "1" departSpeed="11.180000"/>
	<vehicle id="car_60" type="car9" route="1" depart="11" departLane = "0" departSpeed="11.180000"/>
	<vehicle id="car_61" type="car7" route="10" depart="11" departLane = "1" departSpeed="11.180000"/>
	<vehicle id="car_62" type="car9" route="3" depart="11" departLane = "2" departSpeed="11.180000"/>
	<vehicle id="car_63" type="car8" route="7" depart="11" departLane = "2" departSpeed="11.180000"/>
	<vehicle id="car_64" type="car8" route="4" depart="12" departLane = "0" departSpeed="11.180000"/>
	<vehicle id="car_65" type="car9" route="15" depart="12" departLane = "1" departSpeed="11.180000"/>
	<vehicle id="car_66" type="car5" route="7" depart="12" departLane = "2" departSpeed="11.180000"/>
	<vehicle id="car_67" type="car8" route="12" depart="12" departLane = "2" departSpeed="11.180000"/>
	<vehicle id="car_68" type="car5" route="11" depart="13" departLane = "2" departSpeed="11.180000"/>
	<vehicle id="car_69" type="car7" route="1" depart="13" departLane = "0" departSpeed="11.180000"/>
	<vehicle id="car_70" type="car7" route="13" depart="13" departLane = "2" departSpeed="11.180000"/>
	<vehicle id="car_71" type="car5" route="0" depart="14" departLane = "2" departSpeed="11.180000"/>
	<vehicle id="car_72" type="car8" route="11" depart="14" departLane = "2" departSpeed="11.180000"/>
	<vehicle id="car_73" type="car7" route="1" depart="14" departLane = "0" departSpeed="11.180000"/>
	<vehicle id="car_74" type="car9" route="6" depart="14" departLane = "0" departSpeed="11.180000"/>
	<vehicle id="car_75" type="car9" route="9" depart="14" departLane = "2" departSpeed="11.180000"/>
	<vehicle id="car_76" type="car6" route="3" depart="14" departLane = "1" departSpeed="11.180000"/>
	<vehicle id="car_77" type="car6" route="7" depart="14" departLane = "2" departSpeed="11.180000"/>
	<vehicle id="car_78" type="car7" route="12" depart="14" departLane = "1" departSpeed="11.180000"/>
	<vehicle id="car_79" type="car8" route="4" depart="15" departLane = "0" departSpeed="11.180000"/>
	<vehicle id="car_80" type="car6" route="11" depart="15" departLane = "0" departSpeed="11.180000"/>
	<vehicle id="car_81" type="car9" route="15" depart="15" departLane = "1" departSpeed="11.180000"/>
	<vehicle id="car_82" type="car9" route="10" depart="15" departLane = "2" departSpeed="11.180000"/>
	<vehicle id="car_83" type="car5" route="3" depart="15" departLane = "0" departSpeed="11.180000"/>
	<vehicle id="car_84" type="car7" route="7" depart="15" departLane = "1" departSpeed="11.180000"/>
	<vehicle id="car_85" type="car5" route="0" depart="16" departLane = "0" departSpeed="11.180000"/>
	<vehicle id="car_86" type="car8" route="11" depart="16" departLane = "1" departSpeed="11.180000"/>
	<vehicle id="car_87" type="car9" route="10" depart="16" departLane = "0" departSpeed="11.180000"/>
	<vehicle id="car_88" type="car6" route="3" depart="16" departLane = "2" departSpeed="11.180000"/>
	<vehicle id="car_89" type="car6" route="7" depart="16" departLane = "1" departSpeed="11.180000"/>
	<vehicle id="car_90" type="car8" route="8" depart="16" departLane = "2" departSpeed="11.180000"/>
	<vehicle id="car_91" type="car7" route="12" depart="16" departLane = "2" departSpeed="11.180000"/>
	<vehicle id="car_92" type="car8" route="11" depart="17" departLane = "1" departSpeed="11.180000"/>
	<vehicle id="car_93" type="car5" route="10" depart="17" departLane = "0" departSpeed="11.180000"/>
	<vehicle id="car_94" type="car6" route="6" depart="17" departLane = "2" departSpeed="11.180000"/>
	<vehicle id="car_95" type="car7" route="3" depart="17" departLane = "1" departSpeed="11.180000"/>
	<vehicle id="car_96" type="car7" route="7" depart="17" departLane = "0" departSpeed="11.180000"/>
	<vehicle id="car_97" type="car8" route="0" depart="18" departLane = "1" departSpeed="11.180000"/>
	<vehicle id="car_98" type="car9" route="11" depart="18" departLane = "2" departSpeed="11.180000"/>
	<vehicle id="car_99" type="car5" route="15" depart="18" departLane = "1" departSpeed="11.180000"/>
	<vehicle id="car_100" type="car5" route="9" depart="18" departLane = "1" departSpeed="11.180000"/>
	<vehicle id="car_101" type="car7" route="3" depart="18" departLane = "0" departSpeed="11.180000"/>
	<vehicle id="car_102" type="car9" route="11" depart="19" departLane = "2" departSpeed="11.180000"/>
	<vehicle id="car_103" type="car5" route="15" depart="19" departLane = "0" departSpeed="11.180000"/>
	<vehicle id="car_104" type="car8" route="5" depart="19" departLane = "2" departSpeed="11.180000"/>
	<vehicle id="car_105" type="car7" route="10" depart="19" departLane = "2" departSpeed="11.180000"/>
	<vehicle id="car_106" type="car5" route="2" depart="19" departLane = "2" departSpeed="11.180000"/>
	<vehicle id="car_107" type="car7" route="9" depart="19" departLane = "0" departSpeed="11.180000"/>
	<vehicle id="car_108" type="car8" route="3" depart="19" departLane = "1" departSpeed="11.180000"/>
	<vehicle id="car_109" type="car6" route="7" depart="19" departLane = "2" departSpeed="11.180000"/>
	<vehicle id="car_110" type="car7" route="12" depart="19" departLane = "1" departSpeed="11.180000"/>
	<vehicle id="car_111" type="car9" route="11" depart="20" departLane = "2" departSpeed="11.180000"/>
	<vehicle id="car_112" type="car6" route="1" depart="20" departLane = "0" departSpeed="11.180000"/>
	<vehicle id="car_113" type="car7" route="10" depart="20" departLane = "0" departSpeed="11.180000"/>
	<vehicle id="car_114" type="car5" route="7" depart="20" departLane = "2" departSpeed="11.180000"/>
	<vehicle id="car_115" type="car9" route="8" depart="20" departLane = "0" departSpeed="11.180000"/>
	<vehicle id="car_116" type="car9" route="12" depart="20" departLane = "1" departSpeed="11.180000"/>
	<vehicle id="car_117" type="car8" route="0" depart="21" departLane = "0" departSpeed="11.180000"/>
	<vehicle id="car_118" type="car5" route="4" depart="21" departLane = "0" departSpeed="11.180000"/>
	<vehicle id="car_119" type="car8" route="11" depart="21" departLane = "1" departSpeed="11.180000"/>
	<vehicle id="car_120" type="car6" route="15" depart="21" departLane = "2" departSpeed="11.180000"/>
	<vehicle id="car_121" type="car9" route="10" depart="21" departLane = "1" departSpeed="11.180000"/>
	<vehicle id="car_122" type="car5" route="6" depart="21" departLane = "0" departSpeed="11.180000"/>
	<vehicle id="car_123" type="car8" route="9" depart="21" departLane = "2" departSpeed="11.180000"/>
	<vehicle id="car_124" type="car9" route="0" depart="22" departLane = "2" departSpeed="11.180000"/>
	<vehicle id="car_125" type="car8" route="11" depart="22" departLane = "2" departSpeed="11.180000"/>
	<vehicle id="car_126" type="car6" route="15" depart="22" departLane = "0" departSpeed="11.180000"/>
	<vehicle id="car_127" type="car7" route="10" depart="22" departLane = "2" departSpeed="11.180000"/>
	<vehicle id="car_128" type="car9" route="9" depart="22" departLane = "0" departSpeed="11.180000"/>
	<vehicle id="car_129" type="car5" route="7" depart="22" departLane = "1" departSpeed="11.180000"/>
	<vehicle id="car_130" type="car8" route="0" depart="24" departLane = "0" departSpeed="11.180000"/>
	<vehicle id="car_131" type="car5" route="4" depart="24" departLane = "2" departSpeed="11.180000"/>
	<vehicle id="car_132" type="car9" route="11" depart="24" departLane = "2" departSpeed="11.180000"/>
	<vehicle id="car_133" type="car5" route="15" depart="24" departLane = "1" departSpeed="11.180000"/>
	<vehicle id="car_134" type="car5" route="6" depart="24" departLane = "0" departSpeed="11.180000"/>
	<vehicle id="car_135" type="car5" route="9" depart="24" departLane = "1" departSpeed="11.180000"/>
	<vehicle id="car_136" type="car8" route="12" depart="24" departLane = "0" departSpeed="11.180000"/>
	<vehicle id="car_137" type="car9" route="0" depart="25" departLane = "1" departSpeed="11.180000"/>
	<vehicle id="car_138" type="car6" route="11" depart="25" departLane = "0" departSpeed="11.180000"/>
	<vehicle id="car_139" type="car5" route="15" depart="25" departLane = "2" departSpeed="11.180000"/>
	<vehicle id="car_140" type="car5" route="3" depart="25" departLane = "0" departSpeed="11.180000"/>
	<vehicle id="car_141" type="car7" route="0" depart="26" departLane = "0" departSpeed="11.180000"/>
	<vehicle id="car_142" type="car5" route="4" depart="26" departLane = "1" departSpeed="11.180000"/>
	<vehicle id="car_143" type="car9" route="15" depart="26" departLane = "2" departSpeed="11.180000"/>
	<vehicle id="car_144" type="car9" route="3" depart="26" departLane = "1" departSpeed="11.180000"/>
	<vehicle id="car_145" type="car7" route="7" depart="26" departLane = "0" departSpeed="11.180000"/>
	<vehicle id="car_146" type="car9" route="12" depart="26" departLane = "1" departSpeed="11.180000"/>
	<vehicle id="car_147" type="car6" route="4" depart="27" departLane = "1" departSpeed="11.180000"/>
	<vehicle id="car_148" type="car8" route="15" depart="27" departLane = "0" departSpeed="11.180000"/>
	<vehicle id="car_149" type="car6" route="10" depart="27" departLane = "2" departSpeed="11.180000"/>
	<vehicle id="car_150" type="car5" route="2" depart="27" departLane = "1" departSpeed="11.180000"/>
	<vehicle id="car_151" type="car6" route="9" depart="27" departLane = "2" departSpeed="11.180000"/>
	<vehicle id="car_152" type="car6" route="3" depart="27" departLane = "0" departSpeed="11.180000"/>
	<vehicle id="car_153" type="car7" route="0" depart="28" departLane = "2" departSpeed="11.180000"/>
	<vehicle id="car_154" type="car7" route="1" depart="28" departLane = "0" departSpeed="11.180000"/>
	<vehicle id="car_155" type="car8" route="10" depart="28" departLane = "1" departSpeed="11.180000"/>
	<vehicle id="car_156" type="car7" route="9" depart="28" departLane = "2" departSpeed="11.180000"/>
	<vehicle id="car_157" type="car9" route="3" depart="28" departLane = "0" departSpeed="11.180000"/>
	<vehicle id="car_158" type="car7" route="7" depart="28" departLane = "0" departSpeed="11.180000"/>
	<vehicle id="car_159" type="car5" route="12" depart="28" departLane = "2" departSpeed="11.180000"/>
	<vehicle id="car_160" type="car6" route="0" depart="29" departLane = "1" departSpeed="11.180000"/>
	<vehicle id="car_161" type="car7" route="11" depart="29" departLane = "2" departSpeed="11.180000"/>
	<vehicle id="car_162" type="car8" route="1" depart="29" departLane = "0" departSpeed="11.180000"/>
	<vehicle id="car_163" type="car8" route="6" depart="29" departLane = "2" departSpeed="11.180000"/>
	<vehicle id="car_164" type="car7" route="8" depart="29" departLane = "1" departSpeed="11.180000"/>
	<vehicle id="car_165" type="car5" route="0" depart="30" departLane = "1" departSpeed="11.180000"/>
	<vehicle id="car_166" type="car9" route="11" depart="30" departLane = "2" departSpeed="11.180000"/>
	<vehicle id="car_167" type="car8" route="1" depart="30" departLane = "2" departSpeed="11.180000"/>
	<vehicle id="car_168" type="car6" route="10" depart="30" departLane = "0" departSpeed="11.180000"/>
	<vehicle id="car_169" type="car5" route="9" depart="30" departLane = "1" departSpeed="11.180000"/>
	<vehicle id="car_170" type="car9" route="3" depart="30" departLane = "0" departSpeed="11.180000"/>
	<vehicle id="car_171" type="car9" route="4" depart="31" departLane = "1" departSpeed="11.180000"/>
	<vehicle id="car_172" type="car7" route="11" depart="31" departLane = "1" departSpeed="11.180000"/>
	<vehicle id="car_173" type="car7" route="10" depart="31" departLane = "2" departSpeed="11.180000"/>
	<vehicle id="car_174" type="car8" route="3" depart="31" departLane = "1" departSpeed="11.180000"/>
	<vehicle id="car_175" type="car9" route="15" depart="32" departLane = "2" departSpeed="11.180000"/>
	<vehicle id="car_176" type="car9" route="10" depart="32" departLane = "0" departSpeed="11.180000"/>
	<vehicle id="car_177" type="car8" route="6" depart="32" departLane = "0" departSpeed="11.180000"/>
	<vehicle id="car_178" type="car7" route="9" depart="32" departLane = "1" departSpeed="11.180000"/>
	<vehicle id="car_179" type="car6" route="3" depart="32" departLane = "1" departSpeed="11.180000"/>
	<vehicle id="car_180" type="car7" route="7" depart="32" departLane = "1" departSpeed="11.180000"/>
	<vehicle id="car_181" type="car7" route="4" depart="33" departLane = "0" departSpeed="11.180000"/>
	<vehicle id="car_182" type="car9" route="10" depart="33" departLane = "1" departSpeed="11.180000"/>
	<vehicle id="car_183" type="car8" route="9" depart="33" departLane = "0" departSpeed="11.180000"/>
	<vehicle id="car_184" type="car7" route="12" depart="33" departLane = "0" departSpeed="11.180000"/>
	<vehicle id="car_185" type="car5" route="11" depart="34" departLane = "0" departSpeed="11.180000"/>
	<vehicle id="car_186" type="car5" route="15" depart="34" departLane = "2" departSpeed="11.180000"/>
	<vehicle id="car_187" type="car9" route="9" depart="34" departLane = "1" departSpeed="11.180000"/>
	<vehicle id="car_188" type="car5" route="8" depart="34" departLane = "2" departSpeed="11.180000"/>
	<vehicle id="car_189" type="car8" route="0" depart="35" departLane = "1" departSpeed="11.180000"/>
	<vehicle id="car_190" type="car8" route="11" depart="35" departLane = "0" departSpeed="11.180000"/>
	<vehicle id="car_191" type="car7" route="10" depart="35" departLane = "1" departSpeed="11.180000"/>
	<vehicle id="car_192" type="car7" route="7" depart="35" departLane = "1" departSpeed="11.180000"/>
	<vehicle id="car_193" type="car6" route="12" depart="35" departLane = "2" departSpeed="11.180000"/>
	<vehicle id="car_194" type="car5" route="0" depart="36" departLane = "2" departSpeed="11.180000"/>
	<vehicle id="car_195" type="car7" route="11" depart="36" departLane = "0" departSpeed="11.180000"/>
	<vehicle id="car_196" type="car7" route="15" depart="36" departLane = "0" departSpeed="11.180000"/>
	<vehicle id="car_197" type="car6" route="1" depart="36" departLane = "2" departSpeed="11.180000"/>
	<vehicle id="car_198" type="car6" route="13" depart="36" departLane = "1" departSpeed="11.180000"/>
	<vehicle id="car_199" type="car9" route="7" depart="36" departLane = "0" departSpeed="11.180000"/>
	<vehicle id="car_200" type="car6" route="4" depart="37" departLane = "0" departSpeed="11.180000"/>
	<vehicle id="car_201" type="car7" route="15" depart="37" departLane = "1" departSpeed="11.180000"/>
	<vehicle id="car_202" type="car8" route="2" depart="37" departLane = "1" departSpeed="11.180000"/>
	<vehicle id="car_203" type="car8" route="9" depart="37" departLane = "1" departSpeed="11.180000"/>
	<vehicle id="car_204" type="car7" route="8" depart="37" departLane = "0" departSpeed="11.180000"/>
	<vehicle id="car_205" type="car8" route="4" depart="38" departLane = "2" departSpeed="11.180000"/>
	<vehicle id="car_206" type="car8" route="15" depart="38" departLane = "1" departSpeed="11.180000"/>
	<vehicle id="car_207" type="car9" route="6" depart="38" departLane = "0" departSpeed="11.180000"/>
	<vehicle id="car_208" type="car6" route="3" depart="38" departLane = "2" departSpeed="11.180000"/>
	<vehicle id="car_209" type="car6" route="0" depart="39" departLane = "1" departSpeed="11.180000"/>
	<vehicle id="car_210" type="car9" route="11" depart="39" departLane = "2" departSpeed="11.180000"/>
	<vehicle id="car_211" type="car7" route="1" depart="39" departLane = "2" departSpeed="11.180000"/>
	<vehicle id="car_212" type="car9" route="6" depart="39" departLane = "1" departSpeed="11.180000"/>
	<vehicle id="car_213" type="car7" route="3" depart="39" departLane = "0" departSpeed="11.180000"/>
	<vehicle id="car_214" type="car6" route="7" depart="39" departLane = "0" departSpeed="11.180000"/>
	<vehicle id="car_215" type="car5" route="0" depart="40" departLane = "0" departSpeed="11.180000"/>
	<vehicle id="car_216" type="car8" route="4" depart="40" departLane = "0" departSpeed="11.180000"/>
	<vehicle id="car_217" type="car9" route="15" depart="40" departLane = "2" departSpeed="11.180000"/>
	<vehicle id="car_218" type="car9" route="10" depart="40" departLane = "0" departSpeed="11.180000"/>
	<vehicle id="car_219" type="car6" route="13" depart="40" departLane = "2" departSpeed="11.180000"/>
	<vehicle id="car_220" type="car5" route="7" depart="40" departLane = "0" departSpeed="11.180000"/>
	<vehicle id="car_221" type="car7" route="12" depart="40" departLane = "1" departSpeed="11.180000"/>
	<vehicle id="car_222" type="car8" route="0" depart="41" departLane = "1" departSpeed="11.180000"/>
	<vehicle id="car_223" type="car5" route="5" depart="41" departLane = "1" departSpeed="11.180000"/>
	<vehicle id="car_224" type="car8" route="10" depart="41" departLane = "0" departSpeed="11.180000"/>
	<vehicle id="car_225" type="car5" route="9" depart="41" departLane = "1" departSpeed="11.180000"/>
	<vehicle id="car_226" type="car6" route="3" depart="41" departLane = "1" departSpeed="11.180000"/>
	<vehicle id="car_227" type="car7" route="7" depart="41" departLane = "2" departSpeed="11.180000"/>
	<vehicle id="car_228" type="car6" route="9" depart="42" departLane = "2" departSpeed="11.180000"/>
	<vehicle id="car_229" type="car7" route="3" depart="42" departLane = "1" departSpeed="11.180000"/>
	<vehicle id="car_230" type="car7" route="15" depart="43" departLane = "2" departSpeed="11.180000"/>
	<vehicle id="car_231" type="car9" route="7" depart="43" departLane = "0" departSpeed="11.180000"/>
	<vehicle id="car_232" type="car6" route="11" depart="44" departLane = "2" departSpeed="11.180000"/>
	<vehicle id="car_233" type="car5" route="1" depart="44" departLane = "0" departSpeed="11.180000"/>
	<vehicle id="car_234" type="car7" route="10" depart="44" departLane = "2" departSpeed="11.180000"/>
	<vehicle id="car_235" type="car7" route="6" depart="44" departLane = "1" departSpeed="11.180000"/>
	<vehicle id="car_236" type="car6" route="7" depart="44" departLane = "2" departSpeed="11.180000"/>
	<vehicle id="car_237" type="car7" route="12" depart="44" departLane = "1" departSpeed="11.180000"/>
	<vehicle id="car_238" type="car7" route="0" depart="45" departLane = "2" departSpeed="11.180000"/>
	<vehicle id="car_239" type="car9" route="11" depart="45" departLane = "1" departSpeed="11.180000"/>
	<vehicle id="car_240" type="car5" route="3" depart="45" departLane = "2" departSpeed="11.180000"/>
	<vehicle id="car_241" type="car8" route="10" depart="46" departLane = "2" departSpeed="11.180000"/>
	<vehicle id="car_242" type="car5" route="7" depart="46" departLane = "1" departSpeed="11.180000"/>
	<vehicle id="car_243" type="car9" route="8" depart="46" departLane = "0" departSpeed="11.180000"/>
	<vehicle id="car_244" type="car9" route="0" depart="47" departLane = "0" departSpeed="11.180000"/>
	<vehicle id="car_245" type="car7" route="11" depart="47" departLane = "2" departSpeed="11.180000"/>
	<vehicle id="car_246" type="car6" route="10" depart="47" departLane = "0" departSpeed="11.180000"/>
	<vehicle id="car_247" type="car6" route="6" depart="47" departLane = "2" departSpeed="11.180000"/>
	<vehicle id="car_248" type="car5" route="9" depart="47" departLane = "2" departSpeed="11.180000"/>
	<vehicle id="car_249" type="car6" route="7" depart="47" departLane = "1" departSpeed="11.180000"/>
	<vehicle id="car_250" type="car8" route="0" depart="48" departLane = "2" departSpeed="11.180000"/>
	<vehicle id="car_251" type="car5" route="11" depart="48" departLane = "0" departSpeed="11.180000"/>
	<vehicle id="car_252" type="car9" route="10" depart="48" departLane = "2" departSpeed="11.180000"/>
	<vehicle id="car_253" type="car6" route="2" depart="48" departLane = "0" departSpeed="11.180000"/>
	<vehicle id="car_254" type="car8" route="7" depart="48" departLane = "0" departSpeed="11.180000"/>
	<vehicle id="car_255" type="car5" route="0" depart="49" departLane = "1" departSpeed="11.180000"/>
	<vehicle id="car_256" type="car6" route="4" depart="49" departLane = "1" departSpeed="11.180000"/>
	<vehicle id="car_257" type="car5" route="11" depart="49" departLane = "0" departSpeed="11.180000"/>
	<vehicle id="car_258" type="car9" route="15" depart="49" departLane = "1" departSpeed="11.180000"/>
	<vehicle id="car_259" type="car7" route="10" depart="49" departLane = "0" departSpeed="11.180000"/>
	<vehicle id="car_260" type="car5" route="2" depart="49" departLane = "2" departSpeed="11.180000"/>
	<vehicle id="car_261" type="car7" route="3" depart="49" departLane = "2" departSpeed="11.180000"/>
	<vehicle id="car_262" type="car5" route="7" depart="49" departLane = "1" departSpeed="11.180000"/>
	<vehicle id="car_263" type="car9" route="1" depart="50" departLane = "1" departSpeed="11.180000"/>
	<vehicle id="car_264" type="car5" route="5" depart="50" departLane = "2" departSpeed="11.180000"/>
	<vehicle id="car_265" type="car7" route="7" depart="50" departLane = "1" departSpeed="11.180000"/>
	<vehicle id="car_266" type="car8" route="12" depart="50" departLane = "0" departSpeed="11.180000"/>
	<vehicle id="car_267" type="car6" route="15" depart="51" departLane = "0" departSpeed="11.180000"/>
	<vehicle id="car_268" type="car8" route="1" depart="51" departLane = "1" departSpeed="11.180000"/>
	<vehicle id="car_269" type="car5" route="10" depart="51" departLane = "1" departSpeed="11.180000"/>
	<vehicle id="car_270" type="car8" route="6" depart="51" departLane = "0" departSpeed="11.180000"/>
	<vehicle id="car_271" type="car9" route="3" depart="51" departLane = "1" departSpeed="11.180000"/>
	<vehicle id="car_272" type="car5" route="7" depart="51" departLane = "0" departSpeed="11.180000"/>
	<vehicle id="car_273" type="car6" route="4" depart="52" departLane = "2" departSpeed="11.180000"/>
	<vehicle id="car_274" type="car5" route="11" depart="52" departLane = "2" departSpeed="11.180000"/>
	<vehicle id="car_275" type="car7" route="15" depart="52" departLane = "0" departSpeed="11.180000"/>
	<vehicle id="car_276" type="car7" route="1" depart="52" departLane = "1" departSpeed="11.180000"/>
	<vehicle id="car_277" type="car8" route="10" depart="52" departLane = "0" departSpeed="11.180000"/>
	<vehicle id="car_278" type="car7" route="9" depart="52" departLane = "1" departSpeed="11.180000"/>
	<vehicle id="car_279" type="car5" route="7" depart="52" departLane = "0" departSpeed="11.180000"/>
	<vehicle id="car_280" type="car7" route="12" depart="52" departLane = "2" departSpeed="11.180000"/>
	<vehicle id="car_281" type="car5" route="4" depart="53" departLane = "2" departSpeed="11.180000"/>
	<vehicle id="car_282" type="car6" route="11" depart="53" departLane = "2" departSpeed="11.180000"/>
	<vehicle id="car_283" type="car9" route="1" depart="53" departLane = "1" departSpeed="11.180000"/>
	<vehicle id="car_284" type="car7" route="6" depart="53" departLane = "2" departSpeed="11.180000"/>
	<vehicle id="car_285" type="car7" route="7" depart="53" departLane = "2" departSpeed="11.180000"/>