<routes>

	<vType id="car5" accel="100.0" decel="100.0" sigma="0.0" length="5" minGap="5.000000" maxSpeed="11.180000" tau="0.200000" carFollowModel="CACC" color="255,255,255"/>
	<vType id="car6" accel="100.0" decel="100.0" sigma="0.0" length="6" minGap="5.000000" maxSpeed="11.180000" tau="0.200000" carFollowModel="CACC" color="255,255,255"/>
	<vType id="car7" accel="100.0" decel="100.0" sigma="0.0" length="7" minGap="5.000000" maxSpeed="11.180000" tau="0.200000" carFollowModel="CACC" color="255,255,255"/>
	<vType id="car8" accel="100.0" decel="100.0" sigma="0.0" length="8" minGap="5.000000" maxSpeed="11.180000" tau="0.200000" carFollowModel="CACC" color="255,255,255"/>
	<vType id="car9" accel="100.0" decel="100.0" sigma="0.0" length="9" minGap="5.000000" maxSpeed="11.180000" tau="0.200000" carFollowModel="CACC" color="255,255,255"/>

	<route id="0" edges=" 001_001_1"/>
	<route id="4" edges=" 001_004_2"/>
	<route id="11" edges=" 004_001_3"/>
	<route id="15" edges=" 001_001_4"/>
	<route id="1" edges=" 001_002_1"/>
	<route id="5" edges=" 002_004_2"/>
	<route id="10" edges=" 004_002_3"/>
	<route id="14" edges=" 002_001_4"/>
	<route id="2" edges=" 001_003_1"/>
	<route id="6" edges=" 003_004_2"/>
	<route id="9" edges=" 004_003_3"/>
	<route id="13" edges=" 003_001_4"/>
	<route id="3" edges=" 001_004_1"/>
	<route id="7" edges=" 004_004_2"/>
	<route id="8" edges=" 004_004_3"/>
	<route id="12" edges=" 004_001_4"/>

	<vehicle id="car_0" type="car5" route="0" depart="0" departLane = "1" departSpeed="11.180000"/>
	<vehicle id="car_1" type="car7" route="8" depart="3" departLane = "0" departSpeed="11.180000"/>
	<vehicle id="car_2" type="car5" route="0" depart="5" departLane = "0" departSpeed="11.180000"/>
	<vehicle id="car_3" type="car9" route="8" depart="9" departLane = "2" departSpeed="11.180000"/>
	<vehicle id="car_4" type="car7" route="0" depart="11" departLane = "2" departSpeed="11.180000"/>
	<vehicle id="car_5" type="car7" route="0" depart="12" departLane = "1" departSpeed="11.180000"/>
	<vehicle id="car_6" type="car5" route="0" depart="14" departLane = "2" departSpeed="11.180000"/>
	<vehicle id="car_7" type="car9" route="8" depart="15" departLane = "1" departSpeed="11.180000"/>
	<vehicle id="car_8" type="car9" route="8" depart="16" departLane = "2" departSpeed="11.180000"/>
	<vehicle id="car_9" type="car9" route="0" depart="17" departLane = "2" departSpeed="11.180000"/>
	<vehicle id="car_10" type="car6" route="8" depart="18" departLane = "2" departSpeed="11.180000"/>
	<vehicle id="car_11" type="car9" route="0" depart="19" departLane = "0" departSpeed="11.180000"/>
	<vehicle id="car_12" type="car8" route="0" depart="20" departLane = "2" departSpeed="11.180000"/>
	<vehicle id="car_13" type="car6" route="0" depart="23" departLane = "1" departSpeed="11.180000"/>
	<vehicle id="car_14" type="car6" route="8" depart="25" departLane = "2" departSpeed="11.180000"/>
	<vehicle id="car_15" type="car5" route="0" depart="27" departLane = "0" departSpeed="11.180000"/>
	<vehicle id="car_16" type="car7" route="0" depart="29" departLane = "2" departSpeed="11.180000"/>
	<vehicle id="car_17" type="car7" route="8" depart="29" departLane = "0" departSpeed="11.180000"/>
	<vehicle id="car_18" type="car6" route="0" depart="30" departLane = "1" departSpeed="11.180000"/>
	<vehicle id="car_19" type="car7" route="8" depart="31" departLane = "0" departSpeed="11.180000"/>
	<vehicle id="car_20" type="car7" route="0" depart="32" departLane = "2" departSpeed="11.180000"/>
	<vehicle id="car_21" type="car6" route="8" depart="32" departLane = "0" departSpeed="11.180000"/>
	<vehicle id="car_22" type="car9" route="0" depart="33" departLane = "0" departSpeed="11.180000"/>
	<vehicle id="car_23" type="car9" route="8" depart="35" departLane = "1" departSpeed="11.180000"/>
	<vehicle id="car_24" type="car5" route="0" depart="36" departLane = "0" departSpeed="11.180000"/>
	<vehicle id="car_25" type="car6" route="8" depart="36" departLane = "0" departSpeed="11.180000"/>
	<vehicle id="car_26" type="car7" route="0" depart="37" departLane = "2" departSpeed="11.180000"/>
	<vehicle id="car_27" type="car8" route="8" depart="39" departLane = "0" departSpeed="11.180000"/>
	<vehicle id="car_28" type="car7" route="0" depart="45" departLane = "1" departSpeed="11.180000"/>
	<vehicle id="car_29" type="car9" route="0" depart="46" departLane = "0" departSpeed="11.180000"/>
	<vehicle id="car_30" type="car8" route="8" depart="47" departLane = "2" departSpeed="11.180000"/>
	<vehicle id="car_31" type="car7" route="0" depart="48" departLane = "1" departSpeed="11.180000"/>
	<vehicle id="car_32" type="car8" route="0" depart="49" departLane = "0" departSpeed="11.180000"/>
	<vehicle id="car_33" type="car7" route="0" depart="53" departLane = "0" departSpeed="11.180000"/>
	<vehicle id="car_34" type="car5" route="8" depart="55" departLane = "1" departSpeed="11.180000"/>
	<vehicle id="car_35" type="car7" route="0" depart="57" departLane = "0" departSpeed="11.180000"/>
	<vehicle id="car_36" type="car5" route="8" depart="58" departLane = "0" departSpeed="11.180000"/>
	<vehicle id="car_37" type="car5" route="8" depart="59" departLane = "2" departSpeed="11.180000"/>
	<vehicle id="car_38" type="car9" route="8" depart="60" departLane = "1" departSpeed="11.180000"/>
	<vehicle id="car_39" type="car6" route="0" depart="63" departLane = "1" departSpeed="11.180000"/>
	<vehicle id="car_40" type="car8" route="8" depart="64" departLane = "2" departSpeed="11.180000"/>
	<vehicle id="car_41" type="car6" route="8" depart="66" departLane = "2" departSpeed="11.180000"/>
	<vehicle id="car_42" type="car5" route="0" depart="69" departLane = "1" departSpeed="11.180000"/>
	<vehicle id="car_43" type="car8" route="8" depart="69" departLane = "1" departSpeed="11.180000"/>
	<vehicle id="car_44" type="car5" route="8" depart="70" departLane = "1" departSpeed="11.180000"/>
	<vehicle id="car_45" type="car6" route="0" depart="71" departLane = "2" departSpeed="11.180000"/>
	<vehicle id="car_46" type="car6" route="8" depart="74" departLane = "2" departSpeed="11.180000"/>
	<vehicle id="car_47" type="car6" route="8" depart="77" departLane = "2" departSpeed="11.180000"/>
	<vehicle id="car_48" type="car7" route="8" depart="78" departLane = "2" departSpeed="11.180000"/>
	<vehicle id="car_49" type="car9" route="8" depart="80" departLane = "2" departSpeed="11.180000"/>
	<vehicle id="car_50" type="car7" route="0" depart="81" departLane = "1" departSpeed="11.180000"/>
	<vehicle id="car_51" type="car6" route="8" depart="81" departLane = "1" departSpeed="11.180000"/>
	<vehicle id="car_52" type="car7" route="0" depart="82" departLane = "0" departSpeed="11.180000"/>
	<vehicle id="car_53" type="car5" route="0" depart="85" departLane = "0" departSpeed="11.180000"/>
	<vehicle id="car_54" type="car7" route="0" depart="87" departLane = "0" departSpeed="11.180000"/>
	<vehicle id="car_55" type="car5" route="8" depart="87" departLane = "0" departSpeed="11.180000"/>
	<vehicle id="car_56" type="car7" route="0" depart="88" departLane = "2" departSpeed="11.180000"/>
	<vehicle id="car_57" type="car6" route="8" depart="88" departLane = "1" departSpeed="11.180000"/>
	<vehicle id="car_58" type="car7" route="0" depart="92" departLane = "1" departSpeed="11.180000"/>
	<vehicle id="car_59" type="car8" route="0" depart="93" departLane = "1" departSpeed="11.180000"/>
	<vehicle id="car_60" type="car8" route="8" depart="93" departLane = "2" departSpeed="11.180000"/>
	<vehicle id="car_61" type="car7" route="8" depart="94" departLane = "0" departSpeed="11.180000"/>
	<vehicle id="car_62" type="car7" route="8" depart="96" departLane = "1" departSpeed="11.180000"/>
	<vehicle id="car_63" type="car5" route="8" depart="97" departLane = "2" departSpeed="11.180000"/>
	<vehicle id="car_64" type="car7" route="0" depart="98" departLane = "2" departSpeed="11.180000"/>
	<vehicle id="car_65" type="car9" route="8" depart="100" departLane = "1" departSpeed="11.180000"/>
	<vehicle id="car_66" type="car5" route="0" depart="101" departLane = "2" departSpeed="11.180000"/>
	<vehicle id="car_67" type="car6" route="8" depart="102" departLane = "2" departSpeed="11.180000"/>
	<vehicle id="car_68" type="car7" route="8" depart="103" departLane = "2" departSpeed="11.180000"/>
	<vehicle id="car_69" type="car6" route="8" depart="104" departLane = "0" departSpeed="11.180000"/>
	<vehicle id="car_70" type="car5" route="8" depart="105" departLane = "1" departSpeed="11.180000"/>
	<vehicle id="car_71" type="car7" route="0" depart="106" departLane = "1" departSpeed="11.180000"/>
	<vehicle id="car_72" type="car5" route="8" depart="106" departLane = "2" departSpeed="11.180000"/>
	<vehicle id="car_73" type="car6" route="8" depart="107" departLane = "0" departSpeed="11.180000"/>
	<vehicle id="car_74" type="car8" route="0" depart="109" departLane = "1" departSpeed="11.180000"/>
	<vehicle id="car_75" type="car8" route="8" depart="110" departLane = "2" departSpeed="11.180000"/>
	<vehicle id="car_76" type="car6" route="8" depart="111" departLane = "0" departSpeed="11.180000"/>
	<vehicle id="car_77" type="car6" route="0" depart="112" departLane = "0" departSpeed="11.180000"/>
	<vehicle id="car_78" type="car6" route="8" depart="112" departLane = "0" departSpeed="11.180000"/>
	<vehicle id="car_79" type="car9" route="8" depart="113" departLane = "1" departSpeed="11.180000"/>
	<vehicle id="car_80" type="car8" route="0" depart="114" departLane = "0" departSpeed="11.180000"/>
	<vehicle id="car_81" type="car8" route="0" depart="115" departLane = "2" departSpeed="11.180000"/>
	<vehicle id="car_82" type="car8" route="8" depart="115" departLane = "0" departSpeed="11.180000"/>
	<vehicle id="car_83" type="car7" route="8" depart="116" departLane = "1" departSpeed="11.180000"/>
	<vehicle id="car_84" type="car8" route="0" depart="117" departLane = "0" departSpeed="11.180000"/>
	<vehicle id="car_85" type="car7" route="8" depart="118" departLane = "0" departSpeed="11.180000"/>
	<vehicle id="car_86" type="car8" route="0" depart="119" departLane = "2" departSpeed="11.180000"/>
	<vehicle id="car_87" type="car5" route="8" depart="119" departLane = "1" departSpeed="11.180000"/>
	<vehicle id="car_88" type="car9" route="8" depart="120" departLane = "2" departSpeed="11.180000"/>
	<vehicle id="car_89" type="car6" route="8" depart="121" departLane = "2" departSpeed="11.180000"/>
	<vehicle id="car_90" type="car6" route="0" depart="122" departLane = "0" departSpeed="11.180000"/>
	<vehicle id="car_91" type="car9" route="0" depart="123" departLane = "0" departSpeed="11.180000"/>
	<vehicle id="car_92" type="car7" route="0" depart="124" departLane = "0" departSpeed="11.180000"/>
	<vehicle id="car_93" type="car8" route="0" depart="127" departLane = "2" departSpeed="11.180000"/>
	<vehicle id="car_94" type="car8" route="0" depart="128" departLane = "1" departSpeed="11.180000"/>
	<vehicle id="car_95" type="car7" route="8" depart="129" departLane = "1" departSpeed="11.180000"/>
	<vehicle id="car_96" type="car5" route="8" depart="130" departLane = "0" departSpeed="11.180000"/>
	<vehicle id="car_97" type="car7" route="0" depart="131" departLane = "1" departSpeed="11.180000"/>
	<vehicle id="car_98" type="car5" route="0" depart="133" departLane = "1" departSpeed="11.180000"/>
	<vehicle id="car_99" type="car8" route="0" depart="134" departLane = "0" departSpeed="11.180000"/>
	<vehicle id="car_100" type="car8" route="8" depart="135" departLane = "1" departSpeed="11.180000"/>
	<vehicle id="car_101" type="car7" route="0" depart="136" departLane = "2" departSpeed="11.180000"/>
	<vehicle id="car_102" type="car9" route="8" depart="136" departLane = "0" departSpeed="11.180000"/>
	<vehicle id="car_103" type="car7" route="0" depart="138" departLane = "1" departSpeed="11.180000"/>
	<vehicle id="car_104" type="car8" route="0" depart="139" departLane = "0" departSpeed="11.180000"/>
	<vehicle id="car_105" type="car7" route="8" depart="140" departLane = "0" departSpeed="11.180000"/>
	<vehicle id="car_106" type="car7" route="8" depart="141" departLane = "2" departSpeed="11.180000"/>
	<vehicle id="car_107" type="car8" route="0" depart="142" departLane = "1" departSpeed="11.180000"/>
	<vehicle id="car_108" type="car6" route="8" depart="142" departLane = "0" departSpeed="11.180000"/>
	<vehicle id="car_109" type="car9" route="0" depart="143" departLane = "2" departSpeed="11.180000"/>
	<vehicle id="car_110" type="car5" route="8" depart="143" departLane = "0" departSpeed="11.180000"/>
	<vehicle id="car_111" type="car6" route="8" depart="144" departLane = "2" departSpeed="11.180000"/>
	<vehicle id="car_112" type="car9" route="0" depart="146" departLane = "1" departSpeed="11.180000"/>
	<vehicle id="car_113" type="car6" route="8" depart="146" departLane = "2" departSpeed="11.180000"/>
	<vehicle id="car_114" type="car7" route="0" depart="147" departLane = "2" departSpeed="11.180000"/>
	<vehicle id="car_115" type="car6" route="8" depart="149" departLane = "0" departSpeed="11.180000"/>
	<vehicle id="car_116" type="car6" route="0" depart="150" departLane = "2" departSpeed="11.180000"/>
	<vehicle id="car_117" type="car6" route="0" depart="152" departLane = "1" departSpeed="11.180000"/>
	<vehicle id="car_118" type="car6" route="8" depart="152" departLane = "2" departSpeed="11.180000"/>
	<vehicle id="car_119" type="car9" route="8" depart="153" departLane = "2" departSpeed="11.180000"/>
	<vehicle id="car_120" type="car8" route="0" depart="154" departLane = "0" departSpeed="11.180000"/>
	<vehicle id="car_121" type="car8" route="8" depart="154" departLane = "1" departSpeed="11.180000"/>
	<vehicle id="car_122" type="car9" route="8" depart="155" departLane = "2" departSpeed="11.180000"/>
	<vehicle id="car_123" type="car9" route="0" depart="156" departLane = "2" departSpeed="11.180000"/>
	<vehicle id="car_124" type="car8" route="8" depart="156" departLane = "0" departSpeed="11.180000"/>
	<vehicle id="car_125" type="car7" route="0" depart="157" departLane = "1" departSpeed="11.180000"/>
	<vehicle id="car_126" type="car6" route="0" depart="158" departLane = "1" departSpeed="11.180000"/>
	<vehicle id="car_127" type="car5" route="8" depart="158" departLane = "1" departSpeed="11.180000"/>
	<vehicle id="car_128" type="car6" route="8" depart="160" departLane = "0" departSpeed="11.180000"/>
	<vehicle id="car_129" type="car5" route="0" depart="162" departLane = "1" departSpeed="11.180000"/>
	<vehicle id="car_130" type="car6" route="8" depart="162" departLane = "2" departSpeed="11.180000"/>
	<vehicle id="car_131" type="car5" route="0" depart="163" departLane = "1" departSpeed="11.180000"/>
	<vehicle id="car_132" type="car5" route="8" depart="163" departLane = "1" departSpeed="11.180000"/>
	<vehicle id="car_133" type="car7" route="0" depart="164" departLane = "2" departSpeed="11.180000"/>
	<vehicle id="car_134" type="car5" route="0" depart="165" departLane = "0" departSpeed="11.180000"/>
	<vehicle id="car_135" type="car7" route="0" depart="166" departLane = "1" departSpeed="11.180000"/>
	<vehicle id="car_136" type="car9" route="8" depart="167" departLane = "2" departSpeed="11.180000"/>
	<vehicle id="car_137" type="car7" route="0" depart="168" departLane = "2" departSpeed="11.180000"/>
	<vehicle id="car_138" type="car9" route="0" depart="172" departLane = "2" departSpeed="11.180000"/>
	<vehicle id="car_139" type="car5" route="8" depart="172" departLane = "1" departSpeed="11.180000"/>
	<vehicle id="car_140" type="car6" route="0" depart="173" departLane = "0" departSpeed="11.180000"/>
	<vehicle id="car_141" type="car5" route="8" depart="173" departLane = "0" departSpeed="11.180000"/>
	<vehicle id="car_142" type="car7" route="0" depart="174" departLane = "0" departSpeed="11.180000"/>
	<vehicle id="car_143" type="car5" route="0" depart="175" departLane = "2" departSpeed="11.180000"/>
	<vehicle id="car_144" type="car5" route="8" depart="175" departLane = "2" departSpeed="11.180000"/>
	<vehicle id="car_145" type="car6" route="0" depart="176" departLane = "2" departSpeed="11.180000"/>
	<vehicle id="car_146" type="car7" route="0" depart="178" departLane = "0" departSpeed="11.180000"/>
	<vehicle id="car_147" type="car5" route="0" depart="179" departLane = "0" departSpeed="11.180000"/>
	<vehicle id="car_148" type="car9" route="0" depart="180" departLane = "2" departSpeed="11.180000"/>
	<vehicle id="car_149" type="car5" route="0" depart="181" departLane = "2" departSpeed="11.180000"/>
	<vehicle id="car_150" type="car6" route="8" depart="181" departLane = "2" departSpeed="11.180000"/>
	<vehicle id="car_151" type="car6" route="0" depart="183" departLane = "1" departSpeed="11.180000"/>
	<vehicle id="car_152" type="car7" route="8" depart="183" departLane = "0" departSpeed="11.180000"/>
	<vehicle id="car_153" type="car8" route="8" depart="184" departLane = "1" departSpeed="11.180000"/>
	<vehicle id="car_154" type="car9" route="0" depart="185" departLane = "2" departSpeed="11.180000"/>
	<vehicle id="car_155" type="car9" route="0" depart="188" departLane = "2" departSpeed="11.180000"/>
	<vehicle id="car_156" type="car6" route="0" depart="190" departLane = "2" departSpeed="11.180000"/>
	<vehicle id="car_157" type="car9" route="8" depart="192" departLane = "2" departSpeed="11.180000"/>
	<vehicle id="car_158" type="car8" route="0" depart="194" departLane = "2" departSpeed="11.180000"/>
	<vehicle id="car_159" type="car6" route="8" depart="194" departLane = "0" departSpeed="11.180000"/>
	<vehicle id="car_160" type="car6" route="0" depart="195" departLane = "0" departSpeed="11.180000"/>
	<vehicle id="car_161" type="car8" route="8" depart="196" departLane = "0" departSpeed="11.180000"/>
	<vehicle id="car_162" type="car5" route="0" depart="197" departLane = "0" departSpeed="11.180000"/>
	<vehicle id="car_163" type="car8" route="0" depart="198" departLane = "1" departSpeed="11.180000"/>
	<vehicle id="car_164" type="car6" route="8" depart="198" departLane = "2" departSpeed="11.180000"/>
	<vehicle id="car_165" type="car7" route="0" depart="200" departLane = "0" departSpeed="11.180000"/>
	<vehicle id="car_166" type="car5" route="8" depart="201" departLane = "1" departSpeed="11.180000"/>
	<vehicle id="car_167" type="car5" route="8" depart="202" departLane = "1" departSpeed="11.180000"/>
	<vehicle id="car_168" type="car8" route="8" depart="203" departLane = "1" departSpeed="11.180000"/>
	<vehicle id="car_169" type="car6" route="0" depart="204" departLane = "0" departSpeed="11.180000"/>
	<vehicle id="car_170" type="car9" route="0" depart="205" departLane = "1" departSpeed="11.180000"/>
	<vehicle id="car_171" type="car9" route="0" depart="206" departLane = "0" departSpeed="11.180000"/>
	<vehicle id="car_172" type="car5" route="0" depart="208" departLane = "0" departSpeed="11.180000"/>
	<vehicle id="car_173" type="car7" route="0" depart="209" departLane = "0" departSpeed="11.180000"/>
	<vehicle id="car_174" type="car9" route="8" depart="211" departLane = "2" departSpeed="11.180000"/>
	<vehicle id="car_175" type="car8" route="0" depart="213" departLane = "0" departSpeed="11.180000"/>
	<vehicle id="car_176" type="car5" route="8" depart="214" departLane = "0" departSpeed="11.180000"/>
	<vehicle id="car_177" type="car9" route="8" depart="215" departLane = "1" departSpeed="11.180000"/>
	<vehicle id="car_178" type="car5" route="8" depart="218" departLane = "2" departSpeed="11.180000"/>
	<vehicle id="car_179" type="car8" route="8" depart="219" departLane = "0" departSpeed="11.180000"/>
	<vehicle id="car_180" type="car8" route="0" depart="220" departLane = "0" departSpeed="11.180000"/>
	<vehicle id="car_181" type="car8" route="8" depart="221" departLane = "0" departSpeed="11.180000"/>
	<vehicle id="car_182" type="car9" route="0" depart="224" departLane = "1" departSpeed="11.180000"/>
	<vehicle id="car_183" type="car5" route="8" depart="224" departLane = "1" departSpeed="11.180000"/>
	<vehicle id="car_184" type="car7" route="8" depart="226" departLane = "0" departSpeed="11.180000"/>
	<vehicle id="car_185" type="car5" route="8" depart="227" departLane = "2" departSpeed="11.180000"/>
	<vehicle id="car_186" type="car5" route="0" depart="228" departLane = "1" departSpeed="11.180000"/>
	<vehicle id="car_187" type="car6" route="0" depart="229" departLane = "1" departSpeed="11.180000"/>
	<vehicle id="car_188" type="car6" route="8" depart="229" departLane = "0" departSpeed="11.180000"/>
	<vehicle id="car_189" type="car7" route="8" depart="230" departLane = "0" departSpeed="11.180000"/>
	<vehicle id="car_190" type="car7" route="8" depart="231" departLane = "1" departSpeed="11.180000"/>
	<vehicle id="car_191" type="car8" route="8" depart="232" departLane = "0" departSpeed="11.180000"/>
	<vehicle id="car_192" type="car9" route="0" depart="233" departLane = "0" departSpeed="11.180000"/>
	<vehicle id="car_193" type="car5" route="0" depart="234" departLane = "1" departSpeed="11.180000"/>
	<vehicle id="car_194" type="car8" route="0" depart="235" departLane = "0" departSpeed="11.180000"/>
	<vehicle id="car_195" type="car6" route="8" depart="235" departLane = "2" departSpeed="11.180000"/>
	<vehicle id="car_196" type="car6" route="0" depart="236" departLane = "0" departSpeed="11.180000"/>
	<vehicle id="car_197" type="car9" route="8" depart="236" departLane = "2" departSpeed="11.180000"/>
	<vehicle id="car_198" type="car5" route="0" depart="238" departLane = "0" departSpeed="11.180000"/>
	<vehicle id="car_199" type="car9" route="0" depart="239" departLane = "0" departSpeed="11.180000"/>
	<vehicle id="car_200" type="car6" route="8" depart="239" departLane = "0" departSpeed="11.180000"/>
	<vehicle id="car_201" type="car9" route="0" depart="240" departLane = "0" departSpeed="11.180000"/>
	<vehicle id="car_202" type="car5" route="8" depart="240" departLane = "1" departSpeed="11.180000"/>
	<vehicle id="car_203" type="car7" route="8" depart="242" departLane = "0" departSpeed="11.180000"/>
	<vehicle id="car_204" type="car8" route="8" depart="243" departLane = "2" departSpeed="11.180000"/>
	<vehicle id="car_205" type="car7" route="8" depart="244" departLane = "2" departSpeed="11.180000"/>
	<vehicle id="car_206" type="car9" route="0" depart="245" departLane = "0" departSpeed="11.180000"/>
	<vehicle id="car_207" type="car5" route="8" depart="245" departLane = "1" departSpeed="11.180000"/>
	<vehicle id="car_208" type="car8" route="8" depart="246" departLane = "1" departSpeed="11.180000"/>
	<vehicle id="car_209" type="car9" route="0" depart="247" departLane = "1" departSpeed="11.180000"/>
	<vehicle id="car_210" type="car8" route="0" depart="248" departLane = "2" departSpeed="11.180000"/>
	<vehicle id="car_211" type="car8" route="0" depart="250" departLane = "2" departSpeed="11.180000"/>
	<vehicle id="car_212" type="car7" route="8" depart="250" departLane = "2" departSpeed="11.180000"/>
	<vehicle id="car_213" type="car8" route="8" depart="252" departLane = "2" departSpeed="11.180000"/>
	<vehicle id="car_214" type="car9" route="0" depart="253" departLane = "2" departSpeed="11.180000"/>
	<vehicle id="car_215" type="car8" route="8" depart="253" departLane = "0" departSpeed="11.180000"/>
	<vehicle id="car_216" type="car5" route="0" depart="254" departLane = "0" departSpeed="11.180000"/>
	<vehicle id="car_217" type="car6" route="0" depart="258" departLane = "0" departSpeed="11.180000"/>
	<vehicle id="car_218" type="car9" route="0" depart="259" departLane = "2" departSpeed="11.180000"/>
	<vehicle id="car_219" type="car9" route="8" depart="261" departLane = "0" departSpeed="11.180000"/>
	<vehicle id="car_220" type="car6" route="0" depart="264" departLane = "2" departSpeed="11.180000"/>
	<vehicle id="car_221" type="car5" route="8" depart="264" departLane = "2" departSpeed="11.180000"/>
	<vehicle id="car_222" type="car9" route="0" depart="265" departLane = "2" departSpeed="11.180000"/>
	<vehicle id="car_223" type="car9" route="8" depart="265" departLane = "0" departSpeed="11.180000"/>
	<vehicle id="car_224" type="car9" route="0" depart="266" departLane = "2" departSpeed="11.180000"/>
	<vehicle id="car_225" type="car6" route="0" depart="268" departLane = "0" departSpeed="11.180000"/>
	<vehicle id="car_226" type="car6" route="8" depart="271" departLane = "1" departSpeed="11.180000"/>
	<vehicle id="car_227" type="car5" route="0" depart="273" departLane = "0" departSpeed="11.180000"/>
	<vehicle id="car_228" type="car9" route="0" depart="275" departLane = "2" departSpeed="11.180000"/>
	<vehicle id="car_229" type="car8" route="8" depart="275" departLane = "0" departSpeed="11.180000"/>
	<vehicle id="car_230" type="car6" route="8" depart="276" departLane = "2" departSpeed="11.180000"/>
	<vehicle id="car_231" type="car5" route="8" depart="277" departLane = "1" departSpeed="11.180000"/>
	<vehicle id="car_232" type="car9" route="0" depart="278" departLane = "0" departSpeed="11.180000"/>
	<vehicle id="car_233" type="car9" route="0" depart="279" departLane = "2" departSpeed="11.180000"/>
	<vehicle id="car_234" type="car9" route="8" depart="281" departLane = "1" departSpeed="11.180000"/>
	<vehicle id="car_235" type="car7" route="8" depart="282" departLane = "0" departSpeed="11.180000"/>
	<vehicle id="car_236" type="car5" route="0" depart="283" departLane = "0" departSpeed="11.180000"/>
	<vehicle id="car_237" type="car7" route="8" depart="283" departLane = "2" departSpeed="11.180000"/>
	<vehicle id="car_238" type="car7" route="8" depart="285" departLane = "1" departSpeed="11.180000"/>
	<vehicle id="car_239" type="car6" route="0" depart="286" departLane = "2" departSpeed="11.180000"/>
	<vehicle id="car_240" type="car6" route="8" depart="287" departLane = "0" departSpeed="11.180000"/>
	<vehicle id="car_241" type="car8" route="8" depart="288" departLane = "0" departSpeed="11.180000"/>
	<vehicle id="car_242" type="car9" route="8" depart="290" departLane = "2" departSpeed="11.180000"/>
	<vehicle id="car_243" type="car7" route="0" depart="291" departLane = "1" departSpeed="11.180000"/>
	<vehicle id="car_244" type="car6" route="8" depart="291" departLane = "0" departSpeed="11.180000"/>
	<vehicle id="car_245" type="car9" route="8" depart="294" departLane = "2" departSpeed="11.180000"/>
	<vehicle id="car_246" type="car5" route="0" depart="295" departLane = "1" departSpeed="11.180000"/>
	<vehicle id="car_247" type="car8" route="8" depart="296" departLane = "2" departSpeed="11.180000"/>
	<vehicle id="car_248" type="car5" route="0" depart="297" departLane = "0" departSpeed="11.180000"/>
	<vehicle id="car_249" type="car7" route="0" depart="298" departLane = "0" departSpeed="11.180000"/>
	<vehicle id="car_250" type="car6" route="0" depart="300" departLane = "0" departSpeed="11.180000"/>
	<vehicle id="car_251" type="car7" route="0" depart="303" departLane = "0" departSpeed="11.180000"/>
	<vehicle id="car_252" type="car5" route="0" depart="304" departLane = "0" departSpeed="11.180000"/>
	<vehicle id="car_253" type="car8" route="8" depart="304" departLane = "1" departSpeed="11.180000"/>
	<vehicle id="car_254" type="car5" route="0" depart="305" departLane = "0" departSpeed="11.180000"/>
	<vehicle id="car_255" type="car8" route="0" depart="306" departLane = "1" departSpeed="11.180000"/>
	<vehicle id="car_256" type="car5" route="0" depart="309" departLane = "0" departSpeed="11.180000"/>
	<vehicle id="car_257" type="car8" route="8" depart="309" departLane = "1" departSpeed="11.180000"/>
	<vehicle id="car_258" type="car7" route="8" depart="311" departLane = "2" departSpeed="11.180000"/>
	<vehicle id="car_259" type="car6" route="0" depart="312" departLane = "0" departSpeed="11.180000"/>
	<vehicle id="car_260" type="car7" route="0" depart="314" departLane = "2" departSpeed="11.180000"/>
	<vehicle id="car_261" type="car6" route="8" depart="315" departLane = "2" departSpeed="11.180000"/>
	<vehicle id="car_262" type="car6" route="8" depart="316" departLane = "0" departSpeed="11.180000"/>
	<vehicle id="car_263" type="car7" route="0" depart="317" departLane = "1" departSpeed="11.180000"/>
	<vehicle id="car_264" type="car8" route="0" depart="320" departLane = "1" departSpeed="11.180000"/>
	<vehicle id="car_265" type="car5" route="0" depart="321" departLane = "2" departSpeed="11.180000"/>
	<vehicle id="car_266" type="car7" route="8" depart="322" departLane = "1" departSpeed="11.180000"/>
	<vehicle id="car_267" type="car6" route="0" depart="323" departLane = "0" departSpeed="11.180000"/>
	<vehicle id="car_268" type="car6" route="8" depart="323" departLane = "0" departSpeed="11.180000"/>
	<vehicle id="car_269" type="car8" route="0" depart="324" departLane = "0" departSpeed="11.180000"/>
	<vehicle id="car_270" type="car8" route="0" depart="325" departLane = "1" departSpeed="11.180000"/>
	<vehicle id="car_271" type="car9" route="8" depart="325" departLane = "2" departSpeed="11.180000"/>
	<vehicle id="car_272" type="car9" route="0" depart="326" departLane = "2" departSpeed="11.180000"/>
	<vehicle id="car_273" type="car6" route="8" depart="326" departLane = "1" departSpeed="11.180000"/>
	<vehicle id="car_274" type="car8" route="8" depart="328" departLane = "0" departSpeed="11.180000"/>
	<vehicle id="car_275" type="car7" route="0" depart="329" departLane = "2" departSpeed="11.180000"/>
	<vehicle id="car_276" type="car7" route="8" depart="330" departLane = "1" departSpeed="11.180000"/>
	<vehicle id="car_277" type="car9" route="8" depart="332" departLane = "1" departSpeed="11.180000"/>
	<vehicle id="car_278" type="car5" route="0" depart="335" departLane = "0" departSpeed="11.180000"/>
	<vehicle id="car_279" type="car9" route="8" depart="336" departLane = "0" departSpeed="11.180000"/>
	<vehicle id="car_280" type="car6" route="0" depart="337" departLane = "1" departSpeed="11.180000"/>
	<vehicle id="car_281" type="car9" route="8" depart="337" departLane = "2" departSpeed="11.180000"/>
	<vehicle id="car_282" type="car6" route="8" depart="338" departLane = "1" departSpeed="11.180000"/>
	<vehicle id="car_283" type="car7" route="8" depart="339" departLane = "1" departSpeed="11.180000"/>