<routes>

	<vType id="car5" accel="100.0" decel="100.0" sigma="0.0" length="5" minGap="3.000000" maxSpeed="11.180000" tau="0.100000" carFollowModel="CACC" color="255,255,255"/>
	<vType id="car6" accel="100.0" decel="100.0" sigma="0.0" length="6" minGap="3.000000" maxSpeed="11.180000" tau="0.100000" carFollowModel="CACC" color="255,255,255"/>
	<vType id="car7" accel="100.0" decel="100.0" sigma="0.0" length="7" minGap="3.000000" maxSpeed="11.180000" tau="0.100000" carFollowModel="CACC" color="255,255,255"/>
	<vType id="car8" accel="100.0" decel="100.0" sigma="0.0" length="8" minGap="3.000000" maxSpeed="11.180000" tau="0.100000" carFollowModel="CACC" color="255,255,255"/>
	<vType id="car9" accel="100.0" decel="100.0" sigma="0.0" length="9" minGap="3.000000" maxSpeed="11.180000" tau="0.100000" carFollowModel="CACC" color="255,255,255"/>

	<route id="route1_2" edges=" 1 -2"/>
	<route id="route1_3" edges=" 1 -3"/>
	<route id="route1_4" edges=" 1 -4"/>
	<route id="route2_1" edges=" 2 -1"/>
	<route id="route2_3" edges=" 2 -3"/>
	<route id="route2_4" edges=" 2 -4"/>
	<route id="route3_1" edges=" 3 -1"/>
	<route id="route3_2" edges=" 3 -2"/>
	<route id="route3_4" edges=" 3 -4"/>
	<route id="route4_1" edges=" 4 -1"/>
	<route id="route4_2" edges=" 4 -2"/>
	<route id="route4_3" edges=" 4 -3"/>

	<vehicle id="S_0" type="car8" route="route4_2" depart="8" departLane = "2" departSpeed="11.180000"/>
	<vehicle id="R_1" type="car7" route="route3_2" depart="17" departLane = "2" departSpeed="11.180000"/>
	<vehicle id="S_2" type="car9" route="route2_4" depart="27" departLane = "2" departSpeed="11.180000"/>
	<vehicle id="S_3" type="car8" route="route3_1" depart="38" departLane = "2" departSpeed="11.180000"/>
	<vehicle id="S_4" type="car9" route="route1_3" depart="47" departLane = "2" departSpeed="11.180000"/>
	<vehicle id="S_5" type="car5" route="route4_2" depart="47" departLane = "1" departSpeed="11.180000"/>
	<vehicle id="S_6" type="car9" route="route1_3" depart="54" departLane = "2" departSpeed="11.180000"/>
	<vehicle id="R_7" type="car5" route="route4_3" depart="56" departLane = "1" departSpeed="11.180000"/>
	<vehicle id="R_8" type="car6" route="route4_3" depart="58" departLane = "0" departSpeed="11.180000"/>
	<vehicle id="S_9" type="car9" route="route2_4" depart="60" departLane = "2" departSpeed="11.180000"/>
	<vehicle id="R_10" type="car7" route="route3_2" depart="62" departLane = "0" departSpeed="11.180000"/>
	<vehicle id="S_11" type="car6" route="route1_3" depart="64" departLane = "0" departSpeed="11.180000"/>
	<vehicle id="S_12" type="car9" route="route1_3" depart="66" departLane = "0" departSpeed="11.180000"/>
	<vehicle id="R_13" type="car6" route="route3_2" depart="69" departLane = "1" departSpeed="11.180000"/>
	<vehicle id="L_14" type="car9" route="route1_2" depart="72" departLane = "1" departSpeed="11.180000"/>
	<vehicle id="L_15" type="car9" route="route3_4" depart="77" departLane = "0" departSpeed="11.180000"/>
	<vehicle id="L_16" type="car7" route="route4_1" depart="83" departLane = "0" departSpeed="11.180000"/>
	<vehicle id="R_17" type="car9" route="route2_1" depart="89" departLane = "0" departSpeed="11.180000"/>
	<vehicle id="R_18" type="car7" route="route2_1" depart="93" departLane = "0" departSpeed="11.180000"/>
	<vehicle id="R_19" type="car6" route="route1_4" depart="97" departLane = "1" departSpeed="11.180000"/>
	<vehicle id="R_20" type="car6" route="route3_2" depart="99" departLane = "1" departSpeed="11.180000"/>
	<vehicle id="R_21" type="car9" route="route4_3" depart="99" departLane = "2" departSpeed="11.180000"/>
	<vehicle id="S_22" type="car8" route="route3_1" depart="106" departLane = "1" departSpeed="11.180000"/>
	<vehicle id="R_23" type="car5" route="route2_1" depart="108" departLane = "1" departSpeed="11.180000"/>
	<vehicle id="L_24" type="car8" route="route3_4" depart="113" departLane = "1" departSpeed="11.180000"/>
	<vehicle id="S_25" type="car7" route="route1_3" depart="114" departLane = "1" departSpeed="11.180000"/>
	<vehicle id="L_26" type="car6" route="route1_2" depart="115" departLane = "1" departSpeed="11.180000"/>
	<vehicle id="R_27" type="car7" route="route2_1" depart="115" departLane = "0" departSpeed="11.180000"/>
	<vehicle id="S_28" type="car5" route="route2_4" depart="117" departLane = "1" departSpeed="11.180000"/>
	<vehicle id="S_29" type="car7" route="route2_4" depart="119" departLane = "0" departSpeed="11.180000"/>
	<vehicle id="L_30" type="car7" route="route2_3" depart="128" departLane = "2" departSpeed="11.180000"/>
	<vehicle id="R_31" type="car5" route="route1_4" depart="138" departLane = "1" departSpeed="11.180000"/>
	<vehicle id="S_32" type="car9" route="route2_4" depart="138" departLane = "1" departSpeed="11.180000"/>
	<vehicle id="S_33" type="car7" route="route4_2" depart="153" departLane = "1" departSpeed="11.180000"/>
	<vehicle id="L_34" type="car5" route="route2_3" depart="160" departLane = "1" departSpeed="11.180000"/>
	<vehicle id="S_35" type="car7" route="route4_2" depart="166" departLane = "0" departSpeed="11.180000"/>
	<vehicle id="S_36" type="car5" route="route1_3" depart="167" departLane = "2" departSpeed="11.180000"/>
	<vehicle id="S_37" type="car6" route="route4_2" depart="170" departLane = "0" departSpeed="11.180000"/>
	<vehicle id="R_38" type="car5" route="route1_4" depart="174" departLane = "2" departSpeed="11.180000"/>
	<vehicle id="R_39" type="car8" route="route2_1" depart="174" departLane = "1" departSpeed="11.180000"/>
	<vehicle id="S_40" type="car8" route="route3_1" depart="174" departLane = "1" departSpeed="11.180000"/>
	<vehicle id="S_41" type="car6" route="route4_2" depart="177" departLane = "0" departSpeed="11.180000"/>
	<vehicle id="R_42" type="car8" route="route1_4" depart="190" departLane = "0" departSpeed="11.180000"/>
	<vehicle id="L_43" type="car7" route="route4_1" depart="194" departLane = "2" departSpeed="11.180000"/>
	<vehicle id="R_44" type="car9" route="route4_3" depart="201" departLane = "2" departSpeed="11.180000"/>
	<vehicle id="R_45" type="car7" route="route3_2" depart="203" departLane = "2" departSpeed="11.180000"/>
	<vehicle id="L_46" type="car8" route="route3_4" depart="208" departLane = "0" departSpeed="11.180000"/>
	<vehicle id="L_47" type="car8" route="route4_1" depart="214" departLane = "1" departSpeed="11.180000"/>
	<vehicle id="L_48" type="car8" route="route1_2" depart="215" departLane = "0" departSpeed="11.180000"/>
	<vehicle id="S_49" type="car5" route="route4_2" depart="220" departLane = "2" departSpeed="11.180000"/>
	<vehicle id="S_50" type="car8" route="route3_1" depart="230" departLane = "2" departSpeed="11.180000"/>
	<vehicle id="S_51" type="car7" route="route3_1" depart="235" departLane = "2" departSpeed="11.180000"/>
	<vehicle id="R_52" type="car6" route="route4_3" depart="240" departLane = "2" departSpeed="11.180000"/>
	<vehicle id="L_53" type="car7" route="route1_2" depart="248" departLane = "0" departSpeed="11.180000"/>
	<vehicle id="L_54" type="car6" route="route4_1" depart="254" departLane = "1" departSpeed="11.180000"/>
	<vehicle id="L_55" type="car5" route="route2_3" depart="258" departLane = "2" departSpeed="11.180000"/>
	<vehicle id="S_56" type="car5" route="route1_3" depart="268" departLane = "0" departSpeed="11.180000"/>
	<vehicle id="L_57" type="car6" route="route3_4" depart="270" departLane = "2" departSpeed="11.180000"/>
	<vehicle id="S_58" type="car6" route="route4_2" depart="270" departLane = "2" departSpeed="11.180000"/>
	<vehicle id="L_59" type="car5" route="route1_2" depart="271" departLane = "2" departSpeed="11.180000"/>
	<vehicle id="L_60" type="car6" route="route4_1" depart="276" departLane = "0" departSpeed="11.180000"/>
	<vehicle id="L_61" type="car5" route="route2_3" depart="280" departLane = "2" departSpeed="11.180000"/>
	<vehicle id="S_62" type="car6" route="route4_2" depart="282" departLane = "1" departSpeed="11.180000"/>
	<vehicle id="L_63" type="car8" route="route2_3" depart="285" departLane = "2" departSpeed="11.180000"/>
	<vehicle id="L_64" type="car7" route="route3_4" depart="285" departLane = "0" departSpeed="11.180000"/>
	<vehicle id="S_65" type="car9" route="route3_1" depart="289" departLane = "1" departSpeed="11.180000"/>
	<vehicle id="R_66" type="car5" route="route4_3" depart="289" departLane = "0" departSpeed="11.180000"/>
	<vehicle id="L_67" type="car8" route="route3_4" depart="306" departLane = "2" departSpeed="11.180000"/>
	<vehicle id="R_68" type="car7" route="route4_3" depart="306" departLane = "1" departSpeed="11.180000"/>
	<vehicle id="L_69" type="car8" route="route2_3" depart="308" departLane = "2" departSpeed="11.180000"/>
	<vehicle id="R_70" type="car8" route="route4_3" depart="310" departLane = "0" departSpeed="11.180000"/>
	<vehicle id="S_71" type="car9" route="route2_4" depart="318" departLane = "2" departSpeed="11.180000"/>
	<vehicle id="R_72" type="car7" route="route1_4" depart="321" departLane = "0" departSpeed="11.180000"/>
	<vehicle id="S_73" type="car8" route="route1_3" depart="327" departLane = "0" departSpeed="11.180000"/>
	<vehicle id="R_74" type="car5" route="route3_2" depart="329" departLane = "2" departSpeed="11.180000"/>
	<vehicle id="L_75" type="car9" route="route2_3" depart="336" departLane = "1" departSpeed="11.180000"/>
	<vehicle id="L_76" type="car9" route="route4_1" depart="339" departLane = "1" departSpeed="11.180000"/>
	<vehicle id="L_77" type="car7" route="route2_3" depart="352" departLane = "1" departSpeed="11.180000"/>
	<vehicle id="L_78" type="car8" route="route3_4" depart="353" departLane = "0" departSpeed="11.180000"/>
	<vehicle id="L_79" type="car9" route="route3_4" depart="355" departLane = "1" departSpeed="11.180000"/>
	<vehicle id="L_80" type="car9" route="route4_1" depart="355" departLane = "0" departSpeed="11.180000"/>
	<vehicle id="S_81" type="car8" route="route2_4" depart="359" departLane = "0" departSpeed="11.180000"/>
	<vehicle id="L_82" type="car5" route="route4_1" depart="359" departLane = "1" departSpeed="11.180000"/>
	<vehicle id="R_83" type="car5" route="route4_3" depart="368" departLane = "2" departSpeed="11.180000"/>
	<vehicle id="S_84" type="car9" route="route1_3" depart="376" departLane = "1" departSpeed="11.180000"/>
	<vehicle id="L_85" type="car9" route="route2_3" depart="379" departLane = "1" departSpeed="11.180000"/>
	<vehicle id="S_86" type="car6" route="route2_4" depart="380" departLane = "0" departSpeed="11.180000"/>
	<vehicle id="L_87" type="car5" route="route4_1" depart="387" departLane = "0" departSpeed="11.180000"/>
	<vehicle id="S_88" type="car6" route="route2_4" depart="389" departLane = "2" departSpeed="11.180000"/>
	<vehicle id="R_89" type="car9" route="route3_2" depart="392" departLane = "0" departSpeed="11.180000"/>
	<vehicle id="L_90" type="car7" route="route1_2" depart="393" departLane = "2" departSpeed="11.180000"/>
	<vehicle id="R_91" type="car9" route="route2_1" depart="398" departLane = "1" departSpeed="11.180000"/>
	<vehicle id="L_92" type="car7" route="route1_2" depart="400" departLane = "1" departSpeed="11.180000"/>
	<vehicle id="R_93" type="car7" route="route1_4" depart="403" departLane = "1" departSpeed="11.180000"/>
	<vehicle id="L_94" type="car7" route="route1_2" depart="406" departLane = "0" departSpeed="11.180000"/>
	<vehicle id="L_95" type="car7" route="route2_3" depart="411" departLane = "2" departSpeed="11.180000"/>
	<vehicle id="S_96" type="car5" route="route2_4" depart="412" departLane = "2" departSpeed="11.180000"/>
	<vehicle id="L_97" type="car7" route="route4_1" depart="416" departLane = "0" departSpeed="11.180000"/>
	<vehicle id="R_98" type="car7" route="route2_1" depart="423" departLane = "0" departSpeed="11.180000"/>
	<vehicle id="L_99" type="car6" route="route2_3" depart="433" departLane = "1" departSpeed="11.180000"/>
	<vehicle id="R_100" type="car5" route="route3_2" depart="435" departLane = "0" departSpeed="11.180000"/>
	<vehicle id="L_101" type="car9" route="route1_2" depart="439" departLane = "0" departSpeed="11.180000"/>
	<vehicle id="R_102" type="car6" route="route2_1" depart="443" departLane = "2" departSpeed="11.180000"/>
	<vehicle id="R_103" type="car5" route="route3_2" depart="452" departLane = "2" departSpeed="11.180000"/>
	<vehicle id="L_104" type="car7" route="route1_2" depart="456" departLane = "0" departSpeed="11.180000"/>
	<vehicle id="S_105" type="car5" route="route2_4" depart="458" departLane = "0" departSpeed="11.180000"/>
	<vehicle id="S_106" type="car9" route="route1_3" depart="462" departLane = "1" departSpeed="11.180000"/>
	<vehicle id="S_107" type="car6" route="route2_4" depart="462" departLane = "2" departSpeed="11.180000"/>
	<vehicle id="L_108" type="car6" route="route3_4" depart="473" departLane = "0" departSpeed="11.180000"/>
	<vehicle id="R_109" type="car6" route="route4_3" depart="474" departLane = "2" departSpeed="11.180000"/>
	<vehicle id="S_110" type="car5" route="route1_3" depart="476" departLane = "1" departSpeed="11.180000"/>
	<vehicle id="R_111" type="car6" route="route2_1" depart="476" departLane = "1" departSpeed="11.180000"/>
	<vehicle id="R_112" type="car5" route="route2_1" depart="481" departLane = "2" departSpeed="11.180000"/>
	<vehicle id="L_113" type="car6" route="route1_2" depart="484" departLane = "1" departSpeed="11.180000"/>
	<vehicle id="R_114" type="car9" route="route3_2" depart="489" departLane = "2" departSpeed="11.180000"/>
	<vehicle id="S_115" type="car5" route="route2_4" depart="494" departLane = "2" departSpeed="11.180000"/>
	<vehicle id="R_116" type="car5" route="route3_2" depart="495" departLane = "2" departSpeed="11.180000"/>
	<vehicle id="S_117" type="car6" route="route2_4" depart="496" departLane = "1" departSpeed="11.180000"/>
	<vehicle id="R_118" type="car9" route="route3_2" depart="502" departLane = "1" departSpeed="11.180000"/>
	<vehicle id="R_119" type="car9" route="route3_2" depart="513" departLane = "0" departSpeed="11.180000"/>
	<vehicle id="R_120" type="car9" route="route1_4" depart="521" departLane = "2" departSpeed="11.180000"/>
	<vehicle id="S_121" type="car7" route="route4_2" depart="522" departLane = "0" departSpeed="11.180000"/>
	<vehicle id="R_122" type="car8" route="route3_2" depart="529" departLane = "2" departSpeed="11.180000"/>
	<vehicle id="S_123" type="car6" route="route4_2" depart="547" departLane = "0" departSpeed="11.180000"/>
	<vehicle id="S_124" type="car8" route="route2_4" depart="554" departLane = "0" departSpeed="11.180000"/>
	<vehicle id="S_125" type="car9" route="route4_2" depart="568" departLane = "1" departSpeed="11.180000"/>
	<vehicle id="L_126" type="car9" route="route2_3" depart="570" departLane = "2" departSpeed="11.180000"/>
	<vehicle id="L_127" type="car6" route="route2_3" depart="578" departLane = "0" departSpeed="11.180000"/>
	<vehicle id="S_128" type="car8" route="route2_4" depart="582" departLane = "1" departSpeed="11.180000"/>
	<vehicle id="L_129" type="car8" route="route3_4" depart="586" departLane = "2" departSpeed="11.180000"/>
	<vehicle id="S_130" type="car8" route="route1_3" depart="589" departLane = "0" departSpeed="11.180000"/>
	<vehicle id="S_131" type="car8" route="route4_2" depart="597" departLane = "2" departSpeed="11.180000"/>
	<vehicle id="L_132" type="car5" route="route4_1" depart="600" departLane = "0" departSpeed="11.180000"/>
	<vehicle id="L_133" type="car5" route="route4_1" depart="608" departLane = "0" departSpeed="11.180000"/>
	<vehicle id="S_134" type="car9" route="route4_2" depart="615" departLane = "1" departSpeed="11.180000"/>
	<vehicle id="S_135" type="car8" route="route4_2" depart="616" departLane = "0" departSpeed="11.180000"/>
	<vehicle id="S_136" type="car8" route="route4_2" depart="618" departLane = "1" departSpeed="11.180000"/>
	<vehicle id="S_137" type="car7" route="route1_3" depart="628" departLane = "1" departSpeed="11.180000"/>
	<vehicle id="S_138" type="car8" route="route3_1" depart="632" departLane = "1" departSpeed="11.180000"/>
	<vehicle id="S_139" type="car6" route="route4_2" depart="633" departLane = "1" departSpeed="11.180000"/>
	<vehicle id="R_140" type="car8" route="route1_4" depart="636" departLane = "2" departSpeed="11.180000"/>
	<vehicle id="S_141" type="car7" route="route1_3" depart="643" departLane = "0" departSpeed="11.180000"/>
	<vehicle id="S_142" type="car5" route="route2_4" depart="643" departLane = "1" departSpeed="11.180000"/>
	<vehicle id="R_143" type="car5" route="route3_2" depart="643" departLane = "2" departSpeed="11.180000"/>
	<vehicle id="R_144" type="car9" route="route1_4" depart="645" departLane = "2" departSpeed="11.180000"/>
	<vehicle id="R_145" type="car6" route="route2_1" depart="655" departLane = "0" departSpeed="11.180000"/>
	<vehicle id="L_146" type="car7" route="route2_3" depart="658" departLane = "2" departSpeed="11.180000"/>
	<vehicle id="R_147" type="car6" route="route4_3" depart="662" departLane = "1" departSpeed="11.180000"/>
	<vehicle id="R_148" type="car5" route="route3_2" depart="664" departLane = "1" departSpeed="11.180000"/>
	<vehicle id="R_149" type="car7" route="route2_1" depart="665" departLane = "2" departSpeed="11.180000"/>
	<vehicle id="L_150" type="car6" route="route4_1" depart="669" departLane = "2" departSpeed="11.180000"/>
	<vehicle id="R_151" type="car6" route="route2_1" depart="674" departLane = "1" departSpeed="11.180000"/>
	<vehicle id="L_152" type="car9" route="route1_2" depart="677" departLane = "0" departSpeed="11.180000"/>
	<vehicle id="S_153" type="car6" route="route3_1" depart="680" departLane = "2" departSpeed="11.180000"/>
	<vehicle id="L_154" type="car9" route="route2_3" depart="684" departLane = "2" departSpeed="11.180000"/>
	<vehicle id="R_155" type="car8" route="route4_3" depart="685" departLane = "0" departSpeed="11.180000"/>
	<vehicle id="R_156" type="car8" route="route1_4" depart="687" departLane = "2" departSpeed="11.180000"/>
	<vehicle id="S_157" type="car6" route="route3_1" depart="689" departLane = "1" departSpeed="11.180000"/>
	<vehicle id="S_158" type="car5" route="route1_3" depart="697" departLane = "1" departSpeed="11.180000"/>
	<vehicle id="L_159" type="car9" route="route1_2" depart="732" departLane = "2" departSpeed="11.180000"/>
	<vehicle id="R_160" type="car6" route="route2_1" depart="738" departLane = "0" departSpeed="11.180000"/>
	<vehicle id="S_161" type="car6" route="route4_2" depart="740" departLane = "2" departSpeed="11.180000"/>
	<vehicle id="R_162" type="car5" route="route2_1" depart="754" departLane = "2" departSpeed="11.180000"/>
	<vehicle id="R_163" type="car7" route="route2_1" depart="762" departLane = "0" departSpeed="11.180000"/>
	<vehicle id="R_164" type="car8" route="route3_2" depart="769" departLane = "0" departSpeed="11.180000"/>
	<vehicle id="R_165" type="car9" route="route2_1" depart="772" departLane = "0" departSpeed="11.180000"/>
	<vehicle id="L_166" type="car8" route="route1_2" depart="780" departLane = "1" departSpeed="11.180000"/>
	<vehicle id="S_167" type="car8" route="route2_4" depart="781" departLane = "2" departSpeed="11.180000"/>
	<vehicle id="R_168" type="car7" route="route4_3" depart="790" departLane = "1" departSpeed="11.180000"/>
	<vehicle id="L_169" type="car7" route="route3_4" depart="794" departLane = "2" departSpeed="11.180000"/>
	<vehicle id="S_170" type="car7" route="route4_2" depart="795" departLane = "1" departSpeed="11.180000"/>
	<vehicle id="L_171" type="car8" route="route4_1" depart="798" departLane = "0" departSpeed="11.180000"/>
	<vehicle id="L_172" type="car9" route="route3_4" depart="799" departLane = "2" departSpeed="11.180000"/>
	<vehicle id="L_173" type="car8" route="route2_3" depart="802" departLane = "0" departSpeed="11.180000"/>
	<vehicle id="R_174" type="car8" route="route2_1" depart="803" departLane = "1" departSpeed="11.180000"/>
	<vehicle id="L_175" type="car7" route="route4_1" depart="806" departLane = "0" departSpeed="11.180000"/>
	<vehicle id="S_176" type="car6" route="route4_2" depart="814" departLane = "0" departSpeed="11.180000"/>
	<vehicle id="R_177" type="car8" route="route1_4" depart="817" departLane = "0" departSpeed="11.180000"/>
	<vehicle id="R_178" type="car8" route="route1_4" depart="838" departLane = "0" departSpeed="11.180000"/>
	<vehicle id="L_179" type="car8" route="route1_2" depart="850" departLane = "0" departSpeed="11.180000"/>
	<vehicle id="L_180" type="car7" route="route2_3" depart="851" departLane = "2" departSpeed="11.180000"/>
	<vehicle id="S_181" type="car5" route="route4_2" depart="860" departLane = "2" departSpeed="11.180000"/>
	<vehicle id="S_182" type="car6" route="route4_2" depart="864" departLane = "0" departSpeed="11.180000"/>
	<vehicle id="L_183" type="car7" route="route1_2" depart="875" departLane = "0" departSpeed="11.180000"/>
	<vehicle id="R_184" type="car5" route="route2_1" depart="876" departLane = "0" departSpeed="11.180000"/>
	<vehicle id="S_185" type="car6" route="route2_4" depart="891" departLane = "0" departSpeed="11.180000"/>
	<vehicle id="S_186" type="car8" route="route2_4" depart="892" departLane = "1" departSpeed="11.180000"/>
	<vehicle id="S_187" type="car5" route="route1_3" depart="893" departLane = "0" departSpeed="11.180000"/>
	<vehicle id="R_188" type="car9" route="route3_2" depart="895" departLane = "1" departSpeed="11.180000"/>
	<vehicle id="L_189" type="car6" route="route3_4" depart="897" departLane = "2" departSpeed="11.180000"/>
	<vehicle id="S_190" type="car5" route="route4_2" depart="898" departLane = "0" departSpeed="11.180000"/>
	<vehicle id="L_191" type="car9" route="route2_3" depart="899" departLane = "2" departSpeed="11.180000"/>
	<vehicle id="L_192" type="car5" route="route1_2" depart="903" departLane = "2" departSpeed="11.180000"/>
	<vehicle id="R_193" type="car6" route="route2_1" depart="904" departLane = "2" departSpeed="11.180000"/>
	<vehicle id="R_194" type="car7" route="route4_3" depart="905" departLane = "1" departSpeed="11.180000"/>
	<vehicle id="S_195" type="car5" route="route1_3" depart="918" departLane = "0" departSpeed="11.180000"/>
	<vehicle id="L_196" type="car7" route="route1_2" depart="925" departLane = "1" departSpeed="11.180000"/>
	<vehicle id="L_197" type="car9" route="route2_3" depart="927" departLane = "1" departSpeed="11.180000"/>
	<vehicle id="L_198" type="car8" route="route1_2" depart="933" departLane = "2" departSpeed="11.180000"/>
	<vehicle id="S_199" type="car8" route="route4_2" depart="944" departLane = "2" departSpeed="11.180000"/>
	<vehicle id="L_200" type="car8" route="route3_4" depart="948" departLane = "0" departSpeed="11.180000"/>
	<vehicle id="R_201" type="car6" route="route2_1" depart="953" departLane = "1" departSpeed="11.180000"/>
	<vehicle id="S_202" type="car5" route="route3_1" depart="965" departLane = "2" departSpeed="11.180000"/>
	<vehicle id="L_203" type="car6" route="route4_1" depart="972" departLane = "1" departSpeed="11.180000"/>
	<vehicle id="L_204" type="car5" route="route1_2" depart="974" departLane = "2" departSpeed="11.180000"/>
	<vehicle id="L_205" type="car8" route="route2_3" depart="976" departLane = "2" departSpeed="11.180000"/>
	<vehicle id="R_206" type="car5" route="route3_2" depart="977" departLane = "1" departSpeed="11.180000"/>
	<vehicle id="S_207" type="car9" route="route2_4" depart="978" departLane = "2" departSpeed="11.180000"/>
	<vehicle id="S_208" type="car9" route="route2_4" depart="979" departLane = "2" departSpeed="11.180000"/>
	<vehicle id="R_209" type="car8" route="route3_2" depart="987" departLane = "1" departSpeed="11.180000"/>
	<vehicle id="R_210" type="car9" route="route2_1" depart="1000" departLane = "1" departSpeed="11.180000"/>
	<vehicle id="L_211" type="car9" route="route1_2" depart="1001" departLane = "2" departSpeed="11.180000"/>
	<vehicle id="S_212" type="car7" route="route3_1" depart="1004" departLane = "1" departSpeed="11.180000"/>
	<vehicle id="L_213" type="car9" route="route1_2" depart="1005" departLane = "1" departSpeed="11.180000"/>
	<vehicle id="L_214" type="car5" route="route4_1" depart="1005" departLane = "2" departSpeed="11.180000"/>
	<vehicle id="R_215" type="car6" route="route3_2" depart="1015" departLane = "2" departSpeed="11.180000"/>
	<vehicle id="L_216" type="car7" route="route2_3" depart="1018" departLane = "2" departSpeed="11.180000"/>
	<vehicle id="S_217" type="car9" route="route2_4" depart="1035" departLane = "1" departSpeed="11.180000"/>
	<vehicle id="S_218" type="car5" route="route4_2" depart="1035" departLane = "0" departSpeed="11.180000"/>
	<vehicle id="R_219" type="car6" route="route2_1" depart="1040" departLane = "1" departSpeed="11.180000"/>
	<vehicle id="S_220" type="car7" route="route3_1" depart="1042" departLane = "2" departSpeed="11.180000"/>
	<vehicle id="R_221" type="car7" route="route4_3" depart="1045" departLane = "0" departSpeed="11.180000"/>
	<vehicle id="L_222" type="car8" route="route1_2" depart="1063" departLane = "2" departSpeed="11.180000"/>
	<vehicle id="R_223" type="car8" route="route1_4" depart="1064" departLane = "0" departSpeed="11.180000"/>
	<vehicle id="L_224" type="car8" route="route4_1" depart="1064" departLane = "1" departSpeed="11.180000"/>
	<vehicle id="R_225" type="car6" route="route2_1" depart="1070" departLane = "0" departSpeed="11.180000"/>
	<vehicle id="R_226" type="car5" route="route3_2" depart="1080" departLane = "0" departSpeed="11.180000"/>
	<vehicle id="L_227" type="car6" route="route1_2" depart="1102" departLane = "0" departSpeed="11.180000"/>
	<vehicle id="R_228" type="car7" route="route2_1" depart="1111" departLane = "2" departSpeed="11.180000"/>
	<vehicle id="R_229" type="car5" route="route4_3" depart="1111" departLane = "2" departSpeed="11.180000"/>
	<vehicle id="L_230" type="car5" route="route3_4" depart="1114" departLane = "0" departSpeed="11.180000"/>
	<vehicle id="L_231" type="car8" route="route1_2" depart="1120" departLane = "2" departSpeed="11.180000"/>
	<vehicle id="S_232" type="car8" route="route2_4" depart="1123" departLane = "1" departSpeed="11.180000"/>
	<vehicle id="L_233" type="car7" route="route2_3" depart="1124" departLane = "2" departSpeed="11.180000"/>
	<vehicle id="L_234" type="car7" route="route2_3" depart="1133" departLane = "1" departSpeed="11.180000"/>
	<vehicle id="S_235" type="car7" route="route3_1" depart="1136" departLane = "2" departSpeed="11.180000"/>
	<vehicle id="S_236" type="car8" route="route4_2" depart="1139" departLane = "0" departSpeed="11.180000"/>
	<vehicle id="S_237" type="car9" route="route1_3" depart="1152" departLane = "0" departSpeed="11.180000"/>
	<vehicle id="L_238" type="car5" route="route2_3" depart="1165" departLane = "1" departSpeed="11.180000"/>
	<vehicle id="S_239" type="car6" route="route3_1" depart="1171" departLane = "2" departSpeed="11.180000"/>
	<vehicle id="R_240" type="car9" route="route2_1" depart="1174" departLane = "0" departSpeed="11.180000"/>
	<vehicle id="L_241" type="car8" route="route4_1" depart="1174" departLane = "2" departSpeed="11.180000"/>
	<vehicle id="S_242" type="car6" route="route3_1" depart="1196" departLane = "0" departSpeed="11.180000"/>
	<vehicle id="L_243" type="car6" route="route2_3" depart="1198" departLane = "1" departSpeed="11.180000"/>
	<vehicle id="R_244" type="car8" route="route2_1" depart="1209" departLane = "1" departSpeed="11.180000"/>
	<vehicle id="S_245" type="car7" route="route3_1" depart="1213" departLane = "0" departSpeed="11.180000"/>
	<vehicle id="S_246" type="car5" route="route4_2" depart="1215" departLane = "2" departSpeed="11.180000"/>
	<vehicle id="L_247" type="car7" route="route1_2" depart="1216" departLane = "0" departSpeed="11.180000"/>
	<vehicle id="L_248" type="car9" route="route1_2" depart="1231" departLane = "1" departSpeed="11.180000"/>
	<vehicle id="S_249" type="car5" route="route3_1" depart="1232" departLane = "1" departSpeed="11.180000"/>
	<vehicle id="S_250" type="car6" route="route1_3" depart="1235" departLane = "0" departSpeed="11.180000"/>
	<vehicle id="R_251" type="car7" route="route1_4" depart="1236" departLane = "2" departSpeed="11.180000"/>
	<vehicle id="R_252" type="car7" route="route2_1" depart="1246" departLane = "1" departSpeed="11.180000"/>
	<vehicle id="R_253" type="car8" route="route4_3" depart="1246" departLane = "0" departSpeed="11.180000"/>
	<vehicle id="R_254" type="car9" route="route4_3" depart="1249" departLane = "1" departSpeed="11.180000"/>
	<vehicle id="L_255" type="car6" route="route2_3" depart="1258" departLane = "0" departSpeed="11.180000"/>
	<vehicle id="S_256" type="car9" route="route1_3" depart="1268" departLane = "0" departSpeed="11.180000"/>
	<vehicle id="S_257" type="car7" route="route2_4" depart="1270" departLane = "0" departSpeed="11.180000"/>
	<vehicle id="R_258" type="car6" route="route4_3" depart="1286" departLane = "1" departSpeed="11.180000"/>
	<vehicle id="L_259" type="car5" route="route2_3" depart="1287" departLane = "1" departSpeed="11.180000"/>
	<vehicle id="L_260" type="car6" route="route1_2" depart="1295" departLane = "0" departSpeed="11.180000"/>
	<vehicle id="L_261" type="car6" route="route1_2" depart="1304" departLane = "0" departSpeed="11.180000"/>
	<vehicle id="L_262" type="car6" route="route2_3" depart="1313" departLane = "2" departSpeed="11.180000"/>
	<vehicle id="R_263" type="car7" route="route4_3" depart="1326" departLane = "0" departSpeed="11.180000"/>
	<vehicle id="R_264" type="car6" route="route1_4" depart="1332" departLane = "0" departSpeed="11.180000"/>
	<vehicle id="R_265" type="car5" route="route4_3" depart="1334" departLane = "1" departSpeed="11.180000"/>
	<vehicle id="L_266" type="car5" route="route2_3" depart="1339" departLane = "0" departSpeed="11.180000"/>
	<vehicle id="S_267" type="car6" route="route2_4" depart="1344" departLane = "2" departSpeed="11.180000"/>
	<vehicle id="L_268" type="car6" route="route4_1" depart="1344" departLane = "1" departSpeed="11.180000"/>
	<vehicle id="S_269" type="car8" route="route3_1" depart="1349" departLane = "1" departSpeed="11.180000"/>
	<vehicle id="R_270" type="car8" route="route1_4" depart="1352" departLane = "0" departSpeed="11.180000"/>