<routes>

	<vType id="car5" accel="100.0" decel="100.0" sigma="0.0" length="5" minGap="3.000000" maxSpeed="11.180000" tau="0.100000" carFollowModel="CACC" color="255,255,255"/>
	<vType id="car6" accel="100.0" decel="100.0" sigma="0.0" length="6" minGap="3.000000" maxSpeed="11.180000" tau="0.100000" carFollowModel="CACC" color="255,255,255"/>
	<vType id="car7" accel="100.0" decel="100.0" sigma="0.0" length="7" minGap="3.000000" maxSpeed="11.180000" tau="0.100000" carFollowModel="CACC" color="255,255,255"/>
	<vType id="car8" accel="100.0" decel="100.0" sigma="0.0" length="8" minGap="3.000000" maxSpeed="11.180000" tau="0.100000" carFollowModel="CACC" color="255,255,255"/>
	<vType id="car9" accel="100.0" decel="100.0" sigma="0.0" length="9" minGap="3.000000" maxSpeed="11.180000" tau="0.100000" carFollowModel="CACC" color="255,255,255"/>

	<route id="route1_2" edges=" 1 -2"/>
	<route id="route1_3" edges=" 1 -3"/>
	<route id="route1_4" edges=" 1 -4"/>
	<route id="route2_1" edges=" 2 -1"/>
	<route id="route2_3" edges=" 2 -3"/>
	<route id="route2_4" edges=" 2 -4"/>
	<route id="route3_1" edges=" 3 -1"/>
	<route id="route3_2" edges=" 3 -2"/>
	<route id="route3_4" edges=" 3 -4"/>
	<route id="route4_1" edges=" 4 -1"/>
	<route id="route4_2" edges=" 4 -2"/>
	<route id="route4_3" edges=" 4 -3"/>

	<vehicle id="S_0" type="car7" route="route2_4" depart="6" departLane = "1" departSpeed="11.180000"/>
	<vehicle id="R_1" type="car8" route="route3_2" depart="8" departLane = "2" departSpeed="11.180000"/>
	<vehicle id="S_2" type="car6" route="route4_2" depart="10" departLane = "2" departSpeed="11.180000"/>
	<vehicle id="S_3" type="car9" route="route1_3" depart="12" departLane = "1" departSpeed="11.180000"/>
	<vehicle id="S_4" type="car9" route="route2_4" depart="13" departLane = "1" departSpeed="11.180000"/>
	<vehicle id="S_5" type="car7" route="route3_1" depart="14" departLane = "1" departSpeed="11.180000"/>
	<vehicle id="S_6" type="car5" route="route2_4" depart="15" departLane = "0" departSpeed="11.180000"/>
	<vehicle id="R_7" type="car6" route="route2_1" depart="16" departLane = "0" departSpeed="11.180000"/>
	<vehicle id="R_8" type="car5" route="route2_1" depart="21" departLane = "2" departSpeed="11.180000"/>
	<vehicle id="S_9" type="car7" route="route4_2" depart="22" departLane = "0" departSpeed="11.180000"/>
	<vehicle id="R_10" type="car6" route="route4_3" depart="23" departLane = "0" departSpeed="11.180000"/>
	<vehicle id="S_11" type="car9" route="route1_3" depart="24" departLane = "2" departSpeed="11.180000"/>
	<vehicle id="S_12" type="car6" route="route3_1" depart="24" departLane = "0" departSpeed="11.180000"/>
	<vehicle id="R_13" type="car6" route="route1_4" depart="26" departLane = "0" departSpeed="11.180000"/>
	<vehicle id="L_14" type="car8" route="route3_4" depart="26" departLane = "0" departSpeed="11.180000"/>
	<vehicle id="L_15" type="car9" route="route3_4" depart="27" departLane = "1" departSpeed="11.180000"/>
	<vehicle id="L_16" type="car5" route="route4_1" depart="27" departLane = "1" departSpeed="11.180000"/>
	<vehicle id="R_17" type="car8" route="route4_3" depart="28" departLane = "2" departSpeed="11.180000"/>
	<vehicle id="R_18" type="car8" route="route1_4" depart="29" departLane = "0" departSpeed="11.180000"/>
	<vehicle id="R_19" type="car8" route="route2_1" depart="29" departLane = "1" departSpeed="11.180000"/>
	<vehicle id="R_20" type="car6" route="route1_4" depart="30" departLane = "2" departSpeed="11.180000"/>
	<vehicle id="R_21" type="car6" route="route3_2" depart="30" departLane = "2" departSpeed="11.180000"/>
	<vehicle id="S_22" type="car8" route="route1_3" depart="32" departLane = "1" departSpeed="11.180000"/>
	<vehicle id="R_23" type="car5" route="route4_3" depart="33" departLane = "2" departSpeed="11.180000"/>
	<vehicle id="L_24" type="car5" route="route2_3" depart="34" departLane = "2" departSpeed="11.180000"/>
	<vehicle id="S_25" type="car7" route="route4_2" depart="34" departLane = "1" departSpeed="11.180000"/>
	<vehicle id="L_26" type="car8" route="route2_3" depart="36" departLane = "1" departSpeed="11.180000"/>
	<vehicle id="R_27" type="car6" route="route1_4" depart="37" departLane = "2" departSpeed="11.180000"/>
	<vehicle id="S_28" type="car8" route="route3_1" depart="37" departLane = "0" departSpeed="11.180000"/>
	<vehicle id="S_29" type="car5" route="route4_2" depart="39" departLane = "1" departSpeed="11.180000"/>
	<vehicle id="L_30" type="car8" route="route2_3" depart="40" departLane = "2" departSpeed="11.180000"/>
	<vehicle id="R_31" type="car8" route="route1_4" depart="41" departLane = "0" departSpeed="11.180000"/>
	<vehicle id="S_32" type="car6" route="route4_2" depart="41" departLane = "1" departSpeed="11.180000"/>
	<vehicle id="S_33" type="car8" route="route1_3" depart="43" departLane = "0" departSpeed="11.180000"/>
	<vehicle id="L_34" type="car5" route="route4_1" depart="43" departLane = "0" departSpeed="11.180000"/>
	<vehicle id="S_35" type="car6" route="route4_2" depart="44" departLane = "2" departSpeed="11.180000"/>
	<vehicle id="S_36" type="car5" route="route4_2" depart="45" departLane = "1" departSpeed="11.180000"/>
	<vehicle id="S_37" type="car5" route="route1_3" depart="46" departLane = "1" departSpeed="11.180000"/>
	<vehicle id="R_38" type="car7" route="route3_2" depart="46" departLane = "2" departSpeed="11.180000"/>
	<vehicle id="R_39" type="car7" route="route4_3" depart="46" departLane = "0" departSpeed="11.180000"/>
	<vehicle id="S_40" type="car7" route="route2_4" depart="47" departLane = "0" departSpeed="11.180000"/>
	<vehicle id="S_41" type="car9" route="route3_1" depart="48" departLane = "2" departSpeed="11.180000"/>
	<vehicle id="R_42" type="car7" route="route4_3" depart="50" departLane = "0" departSpeed="11.180000"/>
	<vehicle id="L_43" type="car6" route="route2_3" depart="52" departLane = "0" departSpeed="11.180000"/>
	<vehicle id="R_44" type="car9" route="route2_1" depart="54" departLane = "0" departSpeed="11.180000"/>
	<vehicle id="R_45" type="car8" route="route3_2" depart="55" departLane = "2" departSpeed="11.180000"/>
	<vehicle id="L_46" type="car6" route="route3_4" depart="59" departLane = "0" departSpeed="11.180000"/>
	<vehicle id="L_47" type="car5" route="route1_2" depart="60" departLane = "0" departSpeed="11.180000"/>
	<vehicle id="L_48" type="car5" route="route3_4" depart="63" departLane = "2" departSpeed="11.180000"/>
	<vehicle id="S_49" type="car7" route="route3_1" depart="64" departLane = "1" departSpeed="11.180000"/>
	<vehicle id="S_50" type="car9" route="route1_3" depart="65" departLane = "0" departSpeed="11.180000"/>
	<vehicle id="S_51" type="car8" route="route2_4" depart="65" departLane = "0" departSpeed="11.180000"/>
	<vehicle id="R_52" type="car8" route="route1_4" depart="66" departLane = "2" departSpeed="11.180000"/>
	<vehicle id="L_53" type="car8" route="route2_3" depart="66" departLane = "1" departSpeed="11.180000"/>
	<vehicle id="L_54" type="car7" route="route1_2" depart="70" departLane = "0" departSpeed="11.180000"/>
	<vehicle id="L_55" type="car9" route="route3_4" depart="70" departLane = "1" departSpeed="11.180000"/>
	<vehicle id="S_56" type="car5" route="route2_4" depart="72" departLane = "0" departSpeed="11.180000"/>
	<vehicle id="L_57" type="car9" route="route1_2" depart="75" departLane = "0" departSpeed="11.180000"/>
	<vehicle id="S_58" type="car7" route="route1_3" depart="79" departLane = "0" departSpeed="11.180000"/>
	<vehicle id="L_59" type="car7" route="route4_1" depart="79" departLane = "1" departSpeed="11.180000"/>
	<vehicle id="L_60" type="car6" route="route4_1" depart="80" departLane = "0" departSpeed="11.180000"/>
	<vehicle id="L_61" type="car8" route="route3_4" depart="81" departLane = "0" departSpeed="11.180000"/>
	<vehicle id="S_62" type="car8" route="route1_3" depart="83" departLane = "1" departSpeed="11.180000"/>
	<vehicle id="L_63" type="car8" route="route2_3" depart="83" departLane = "1" departSpeed="11.180000"/>
	<vehicle id="L_64" type="car5" route="route4_1" depart="83" departLane = "0" departSpeed="11.180000"/>
	<vehicle id="S_65" type="car6" route="route1_3" depart="84" departLane = "2" departSpeed="11.180000"/>
	<vehicle id="R_66" type="car7" route="route3_2" depart="84" departLane = "2" departSpeed="11.180000"/>
	<vehicle id="L_67" type="car5" route="route4_1" depart="84" departLane = "1" departSpeed="11.180000"/>
	<vehicle id="R_68" type="car9" route="route2_1" depart="86" departLane = "2" departSpeed="11.180000"/>
	<vehicle id="L_69" type="car5" route="route3_4" depart="88" departLane = "0" departSpeed="11.180000"/>
	<vehicle id="R_70" type="car5" route="route1_4" depart="90" departLane = "0" departSpeed="11.180000"/>
	<vehicle id="S_71" type="car9" route="route4_2" depart="91" departLane = "2" departSpeed="11.180000"/>
	<vehicle id="R_72" type="car9" route="route4_3" depart="92" departLane = "1" departSpeed="11.180000"/>
	<vehicle id="S_73" type="car8" route="route2_4" depart="93" departLane = "0" departSpeed="11.180000"/>
	<vehicle id="R_74" type="car6" route="route3_2" depart="93" departLane = "1" departSpeed="11.180000"/>
	<vehicle id="L_75" type="car8" route="route1_2" depart="94" departLane = "1" departSpeed="11.180000"/>
	<vehicle id="L_76" type="car7" route="route3_4" depart="94" departLane = "1" departSpeed="11.180000"/>
	<vehicle id="L_77" type="car5" route="route4_1" depart="94" departLane = "0" departSpeed="11.180000"/>
	<vehicle id="L_78" type="car6" route="route2_3" depart="95" departLane = "1" departSpeed="11.180000"/>
	<vehicle id="L_79" type="car7" route="route3_4" depart="95" departLane = "0" departSpeed="11.180000"/>
	<vehicle id="L_80" type="car6" route="route4_1" depart="95" departLane = "0" departSpeed="11.180000"/>
	<vehicle id="S_81" type="car5" route="route1_3" depart="96" departLane = "2" departSpeed="11.180000"/>
	<vehicle id="L_82" type="car5" route="route3_4" depart="97" departLane = "1" departSpeed="11.180000"/>
	<vehicle id="R_83" type="car7" route="route3_2" depart="98" departLane = "0" departSpeed="11.180000"/>
	<vehicle id="S_84" type="car9" route="route3_1" depart="100" departLane = "2" departSpeed="11.180000"/>
	<vehicle id="L_85" type="car6" route="route2_3" depart="101" departLane = "0" departSpeed="11.180000"/>
	<vehicle id="S_86" type="car9" route="route4_2" depart="102" departLane = "0" departSpeed="11.180000"/>
	<vehicle id="L_87" type="car5" route="route1_2" depart="103" departLane = "0" departSpeed="11.180000"/>
	<vehicle id="S_88" type="car9" route="route2_4" depart="103" departLane = "1" departSpeed="11.180000"/>
	<vehicle id="R_89" type="car7" route="route1_4" depart="106" departLane = "2" departSpeed="11.180000"/>
	<vehicle id="L_90" type="car5" route="route1_2" depart="107" departLane = "0" departSpeed="11.180000"/>
	<vehicle id="R_91" type="car5" route="route1_4" depart="110" departLane = "1" departSpeed="11.180000"/>
	<vehicle id="L_92" type="car8" route="route4_1" depart="110" departLane = "2" departSpeed="11.180000"/>
	<vehicle id="R_93" type="car5" route="route2_1" depart="111" departLane = "1" departSpeed="11.180000"/>
	<vehicle id="L_94" type="car8" route="route2_3" depart="112" departLane = "2" departSpeed="11.180000"/>
	<vehicle id="L_95" type="car6" route="route3_4" depart="112" departLane = "1" departSpeed="11.180000"/>
	<vehicle id="S_96" type="car5" route="route3_1" depart="113" departLane = "1" departSpeed="11.180000"/>
	<vehicle id="L_97" type="car9" route="route4_1" depart="113" departLane = "1" departSpeed="11.180000"/>
	<vehicle id="R_98" type="car5" route="route4_3" depart="115" departLane = "0" departSpeed="11.180000"/>
	<vehicle id="L_99" type="car7" route="route1_2" depart="116" departLane = "1" departSpeed="11.180000"/>
	<vehicle id="R_100" type="car6" route="route3_2" depart="116" departLane = "0" departSpeed="11.180000"/>
	<vehicle id="L_101" type="car7" route="route4_1" depart="116" departLane = "1" departSpeed="11.180000"/>
	<vehicle id="R_102" type="car5" route="route1_4" depart="120" departLane = "2" departSpeed="11.180000"/>
	<vehicle id="R_103" type="car7" route="route4_3" depart="120" departLane = "2" departSpeed="11.180000"/>
	<vehicle id="L_104" type="car6" route="route4_1" depart="122" departLane = "1" departSpeed="11.180000"/>
	<vehicle id="S_105" type="car6" route="route2_4" depart="123" departLane = "2" departSpeed="11.180000"/>
	<vehicle id="S_106" type="car8" route="route3_1" depart="123" departLane = "1" departSpeed="11.180000"/>
	<vehicle id="S_107" type="car5" route="route1_3" depart="124" departLane = "2" departSpeed="11.180000"/>
	<vehicle id="L_108" type="car8" route="route3_4" depart="124" departLane = "2" departSpeed="11.180000"/>
	<vehicle id="R_109" type="car5" route="route4_3" depart="124" departLane = "0" departSpeed="11.180000"/>
	<vehicle id="S_110" type="car7" route="route1_3" depart="127" departLane = "1" departSpeed="11.180000"/>
	<vehicle id="R_111" type="car6" route="route2_1" depart="128" departLane = "2" departSpeed="11.180000"/>
	<vehicle id="R_112" type="car8" route="route4_3" depart="128" departLane = "0" departSpeed="11.180000"/>
	<vehicle id="L_113" type="car5" route="route3_4" depart="131" departLane = "2" departSpeed="11.180000"/>
	<vehicle id="R_114" type="car7" route="route2_1" depart="133" departLane = "2" departSpeed="11.180000"/>
	<vehicle id="S_115" type="car9" route="route2_4" depart="134" departLane = "2" departSpeed="11.180000"/>
	<vehicle id="R_116" type="car6" route="route4_3" depart="136" departLane = "0" departSpeed="11.180000"/>
	<vehicle id="S_117" type="car8" route="route3_1" depart="137" departLane = "0" departSpeed="11.180000"/>
	<vehicle id="R_118" type="car7" route="route2_1" depart="139" departLane = "0" departSpeed="11.180000"/>
	<vehicle id="R_119" type="car6" route="route2_1" depart="140" departLane = "0" departSpeed="11.180000"/>
	<vehicle id="R_120" type="car7" route="route2_1" depart="141" departLane = "0" departSpeed="11.180000"/>
	<vehicle id="S_121" type="car5" route="route2_4" depart="143" departLane = "2" departSpeed="11.180000"/>
	<vehicle id="R_122" type="car8" route="route3_2" depart="143" departLane = "1" departSpeed="11.180000"/>
	<vehicle id="S_123" type="car8" route="route4_2" depart="143" departLane = "1" departSpeed="11.180000"/>
	<vehicle id="S_124" type="car6" route="route2_4" depart="144" departLane = "0" departSpeed="11.180000"/>
	<vehicle id="S_125" type="car8" route="route3_1" depart="144" departLane = "0" departSpeed="11.180000"/>
	<vehicle id="L_126" type="car9" route="route2_3" depart="148" departLane = "1" departSpeed="11.180000"/>
	<vehicle id="L_127" type="car5" route="route3_4" depart="150" departLane = "2" departSpeed="11.180000"/>
	<vehicle id="S_128" type="car6" route="route4_2" depart="150" departLane = "1" departSpeed="11.180000"/>
	<vehicle id="L_129" type="car9" route="route4_1" depart="151" departLane = "2" departSpeed="11.180000"/>
	<vehicle id="S_130" type="car7" route="route2_4" depart="152" departLane = "1" departSpeed="11.180000"/>
	<vehicle id="S_131" type="car9" route="route3_1" depart="152" departLane = "2" departSpeed="11.180000"/>
	<vehicle id="L_132" type="car9" route="route4_1" depart="155" departLane = "0" departSpeed="11.180000"/>
	<vehicle id="L_133" type="car9" route="route2_3" depart="157" departLane = "0" departSpeed="11.180000"/>
	<vehicle id="S_134" type="car8" route="route4_2" depart="157" departLane = "0" departSpeed="11.180000"/>
	<vehicle id="S_135" type="car9" route="route3_1" depart="160" departLane = "0" departSpeed="11.180000"/>
	<vehicle id="S_136" type="car8" route="route1_3" depart="162" departLane = "1" departSpeed="11.180000"/>
	<vehicle id="S_137" type="car9" route="route4_2" depart="162" departLane = "0" departSpeed="11.180000"/>
	<vehicle id="S_138" type="car7" route="route2_4" depart="163" departLane = "1" departSpeed="11.180000"/>
	<vehicle id="S_139" type="car7" route="route4_2" depart="163" departLane = "0" departSpeed="11.180000"/>
	<vehicle id="R_140" type="car8" route="route1_4" depart="167" departLane = "0" departSpeed="11.180000"/>
	<vehicle id="S_141" type="car5" route="route3_1" depart="167" departLane = "0" departSpeed="11.180000"/>
	<vehicle id="S_142" type="car7" route="route2_4" depart="168" departLane = "0" departSpeed="11.180000"/>
	<vehicle id="R_143" type="car8" route="route1_4" depart="170" departLane = "1" departSpeed="11.180000"/>
	<vehicle id="R_144" type="car8" route="route1_4" depart="172" departLane = "0" departSpeed="11.180000"/>
	<vehicle id="R_145" type="car6" route="route3_2" depart="172" departLane = "2" departSpeed="11.180000"/>
	<vehicle id="L_146" type="car6" route="route4_1" depart="173" departLane = "0" departSpeed="11.180000"/>
	<vehicle id="R_147" type="car9" route="route2_1" depart="174" departLane = "0" departSpeed="11.180000"/>
	<vehicle id="R_148" type="car8" route="route3_2" depart="174" departLane = "0" departSpeed="11.180000"/>
	<vehicle id="R_149" type="car5" route="route4_3" depart="175" departLane = "2" departSpeed="11.180000"/>
	<vehicle id="L_150" type="car8" route="route4_1" depart="176" departLane = "0" departSpeed="11.180000"/>
	<vehicle id="R_151" type="car6" route="route1_4" depart="177" departLane = "1" departSpeed="11.180000"/>
	<vehicle id="L_152" type="car7" route="route4_1" depart="177" departLane = "1" departSpeed="11.180000"/>
	<vehicle id="S_153" type="car5" route="route4_2" depart="181" departLane = "2" departSpeed="11.180000"/>
	<vehicle id="L_154" type="car6" route="route4_1" depart="184" departLane = "1" departSpeed="11.180000"/>
	<vehicle id="R_155" type="car9" route="route1_4" depart="187" departLane = "0" departSpeed="11.180000"/>
	<vehicle id="R_156" type="car7" route="route2_1" depart="187" departLane = "1" departSpeed="11.180000"/>
	<vehicle id="S_157" type="car9" route="route4_2" depart="188" departLane = "0" departSpeed="11.180000"/>
	<vehicle id="S_158" type="car7" route="route1_3" depart="189" departLane = "0" departSpeed="11.180000"/>
	<vehicle id="L_159" type="car8" route="route1_2" depart="191" departLane = "2" departSpeed="11.180000"/>
	<vehicle id="R_160" type="car6" route="route1_4" depart="192" departLane = "2" departSpeed="11.180000"/>
	<vehicle id="S_161" type="car7" route="route1_3" depart="194" departLane = "2" departSpeed="11.180000"/>
	<vehicle id="R_162" type="car6" route="route2_1" depart="195" departLane = "1" departSpeed="11.180000"/>
	<vehicle id="R_163" type="car9" route="route1_4" depart="196" departLane = "2" departSpeed="11.180000"/>
	<vehicle id="R_164" type="car9" route="route4_3" depart="196" departLane = "1" departSpeed="11.180000"/>
	<vehicle id="R_165" type="car7" route="route2_1" depart="198" departLane = "0" departSpeed="11.180000"/>
	<vehicle id="L_166" type="car6" route="route3_4" depart="200" departLane = "1" departSpeed="11.180000"/>
	<vehicle id="S_167" type="car8" route="route2_4" depart="202" departLane = "0" departSpeed="11.180000"/>
	<vehicle id="R_168" type="car8" route="route1_4" depart="204" departLane = "0" departSpeed="11.180000"/>
	<vehicle id="L_169" type="car6" route="route2_3" depart="204" departLane = "1" departSpeed="11.180000"/>
	<vehicle id="S_170" type="car7" route="route1_3" depart="206" departLane = "1" departSpeed="11.180000"/>
	<vehicle id="L_171" type="car7" route="route3_4" depart="206" departLane = "2" departSpeed="11.180000"/>
	<vehicle id="L_172" type="car9" route="route1_2" depart="207" departLane = "1" departSpeed="11.180000"/>
	<vehicle id="L_173" type="car9" route="route2_3" depart="207" departLane = "0" departSpeed="11.180000"/>
	<vehicle id="R_174" type="car5" route="route1_4" depart="208" departLane = "2" departSpeed="11.180000"/>
	<vehicle id="L_175" type="car6" route="route3_4" depart="209" departLane = "1" departSpeed="11.180000"/>
	<vehicle id="S_176" type="car6" route="route3_1" depart="211" departLane = "0" departSpeed="11.180000"/>
	<vehicle id="R_177" type="car5" route="route2_1" depart="214" departLane = "2" departSpeed="11.180000"/>
	<vehicle id="R_178" type="car7" route="route3_2" depart="214" departLane = "0" departSpeed="11.180000"/>
	<vehicle id="L_179" type="car9" route="route3_4" depart="216" departLane = "1" departSpeed="11.180000"/>
	<vehicle id="L_180" type="car9" route="route4_1" depart="216" departLane = "2" departSpeed="11.180000"/>
	<vehicle id="S_181" type="car5" route="route1_3" depart="217" departLane = "2" departSpeed="11.180000"/>
	<vehicle id="S_182" type="car9" route="route1_3" depart="218" departLane = "1" departSpeed="11.180000"/>
	<vehicle id="L_183" type="car6" route="route4_1" depart="218" departLane = "1" departSpeed="11.180000"/>
	<vehicle id="R_184" type="car9" route="route3_2" depart="220" departLane = "1" departSpeed="11.180000"/>
	<vehicle id="S_185" type="car5" route="route2_4" depart="222" departLane = "1" departSpeed="11.180000"/>
	<vehicle id="S_186" type="car5" route="route3_1" depart="222" departLane = "0" departSpeed="11.180000"/>
	<vehicle id="S_187" type="car5" route="route2_4" depart="223" departLane = "2" departSpeed="11.180000"/>
	<vehicle id="R_188" type="car8" route="route4_3" depart="224" departLane = "0" departSpeed="11.180000"/>
	<vehicle id="L_189" type="car9" route="route1_2" depart="225" departLane = "1" departSpeed="11.180000"/>
	<vehicle id="S_190" type="car6" route="route4_2" depart="226" departLane = "1" departSpeed="11.180000"/>
	<vehicle id="L_191" type="car5" route="route2_3" depart="227" departLane = "0" departSpeed="11.180000"/>
	<vehicle id="L_192" type="car6" route="route3_4" depart="227" departLane = "0" departSpeed="11.180000"/>
	<vehicle id="R_193" type="car5" route="route1_4" depart="231" departLane = "2" departSpeed="11.180000"/>
	<vehicle id="R_194" type="car5" route="route3_2" depart="231" departLane = "1" departSpeed="11.180000"/>
	<vehicle id="S_195" type="car7" route="route1_3" depart="232" departLane = "2" departSpeed="11.180000"/>
	<vehicle id="L_196" type="car6" route="route3_4" depart="232" departLane = "1" departSpeed="11.180000"/>
	<vehicle id="L_197" type="car6" route="route2_3" depart="233" departLane = "0" departSpeed="11.180000"/>
	<vehicle id="L_198" type="car8" route="route2_3" depart="234" departLane = "2" departSpeed="11.180000"/>
	<vehicle id="S_199" type="car7" route="route3_1" depart="234" departLane = "0" departSpeed="11.180000"/>
	<vehicle id="L_200" type="car8" route="route3_4" depart="235" departLane = "1" departSpeed="11.180000"/>
	<vehicle id="R_201" type="car5" route="route4_3" depart="236" departLane = "2" departSpeed="11.180000"/>
	<vehicle id="S_202" type="car5" route="route3_1" depart="237" departLane = "0" departSpeed="11.180000"/>
	<vehicle id="L_203" type="car9" route="route4_1" depart="237" departLane = "1" departSpeed="11.180000"/>
	<vehicle id="L_204" type="car5" route="route1_2" depart="238" departLane = "0" departSpeed="11.180000"/>
	<vehicle id="L_205" type="car8" route="route3_4" depart="238" departLane = "0" departSpeed="11.180000"/>
	<vehicle id="R_206" type="car7" route="route1_4" depart="241" departLane = "2" departSpeed="11.180000"/>
	<vehicle id="S_207" type="car8" route="route3_1" depart="244" departLane = "2" departSpeed="11.180000"/>
	<vehicle id="S_208" type="car5" route="route4_2" depart="246" departLane = "1" departSpeed="11.180000"/>
	<vehicle id="R_209" type="car9" route="route1_4" depart="248" departLane = "1" departSpeed="11.180000"/>
	<vehicle id="R_210" type="car8" route="route3_2" depart="248" departLane = "1" departSpeed="11.180000"/>
	<vehicle id="L_211" type="car9" route="route4_1" depart="248" departLane = "1" departSpeed="11.180000"/>
	<vehicle id="S_212" type="car7" route="route1_3" depart="249" departLane = "1" departSpeed="11.180000"/>
	<vehicle id="L_213" type="car8" route="route2_3" depart="249" departLane = "1" departSpeed="11.180000"/>
	<vehicle id="L_214" type="car6" route="route1_2" depart="250" departLane = "1" departSpeed="11.180000"/>
	<vehicle id="R_215" type="car8" route="route1_4" depart="251" departLane = "2" departSpeed="11.180000"/>
	<vehicle id="L_216" type="car7" route="route2_3" depart="251" departLane = "1" departSpeed="11.180000"/>
	<vehicle id="S_217" type="car9" route="route1_3" depart="252" departLane = "0" departSpeed="11.180000"/>
	<vehicle id="S_218" type="car8" route="route3_1" depart="252" departLane = "2" departSpeed="11.180000"/>
	<vehicle id="R_219" type="car9" route="route3_2" depart="253" departLane = "1" departSpeed="11.180000"/>
	<vehicle id="S_220" type="car6" route="route1_3" depart="254" departLane = "0" departSpeed="11.180000"/>
	<vehicle id="R_221" type="car9" route="route2_1" depart="254" departLane = "0" departSpeed="11.180000"/>
	<vehicle id="L_222" type="car7" route="route3_4" depart="254" departLane = "1" departSpeed="11.180000"/>
	<vehicle id="R_223" type="car9" route="route2_1" depart="257" departLane = "2" departSpeed="11.180000"/>
	<vehicle id="L_224" type="car9" route="route1_2" depart="258" departLane = "1" departSpeed="11.180000"/>
	<vehicle id="R_225" type="car9" route="route4_3" depart="260" departLane = "0" departSpeed="11.180000"/>
	<vehicle id="R_226" type="car9" route="route2_1" depart="263" departLane = "2" departSpeed="11.180000"/>
	<vehicle id="L_227" type="car5" route="route3_4" depart="263" departLane = "0" departSpeed="11.180000"/>
	<vehicle id="R_228" type="car8" route="route4_3" depart="263" departLane = "1" departSpeed="11.180000"/>
	<vehicle id="R_229" type="car5" route="route4_3" depart="265" departLane = "2" departSpeed="11.180000"/>
	<vehicle id="L_230" type="car6" route="route4_1" depart="266" departLane = "2" departSpeed="11.180000"/>
	<vehicle id="L_231" type="car8" route="route3_4" depart="268" departLane = "0" departSpeed="11.180000"/>
	<vehicle id="S_232" type="car9" route="route4_2" depart="268" departLane = "1" departSpeed="11.180000"/>
	<vehicle id="L_233" type="car5" route="route1_2" depart="269" departLane = "1" departSpeed="11.180000"/>
	<vehicle id="L_234" type="car5" route="route2_3" depart="270" departLane = "2" departSpeed="11.180000"/>
	<vehicle id="S_235" type="car6" route="route2_4" depart="274" departLane = "1" departSpeed="11.180000"/>
	<vehicle id="S_236" type="car5" route="route2_4" depart="275" departLane = "2" departSpeed="11.180000"/>
	<vehicle id="S_237" type="car6" route="route4_2" depart="275" departLane = "2" departSpeed="11.180000"/>
	<vehicle id="L_238" type="car9" route="route1_2" depart="276" departLane = "1" departSpeed="11.180000"/>
	<vehicle id="S_239" type="car9" route="route1_3" depart="277" departLane = "1" departSpeed="11.180000"/>
	<vehicle id="R_240" type="car9" route="route2_1" depart="279" departLane = "1" departSpeed="11.180000"/>
	<vehicle id="L_241" type="car9" route="route4_1" depart="279" departLane = "1" departSpeed="11.180000"/>
	<vehicle id="S_242" type="car6" route="route1_3" depart="281" departLane = "1" departSpeed="11.180000"/>
	<vehicle id="L_243" type="car8" route="route3_4" depart="282" departLane = "0" departSpeed="11.180000"/>
	<vehicle id="R_244" type="car5" route="route3_2" depart="285" departLane = "1" departSpeed="11.180000"/>
	<vehicle id="S_245" type="car8" route="route3_1" depart="286" departLane = "1" departSpeed="11.180000"/>
	<vehicle id="S_246" type="car7" route="route1_3" depart="290" departLane = "1" departSpeed="11.180000"/>
	<vehicle id="L_247" type="car8" route="route2_3" depart="291" departLane = "0" departSpeed="11.180000"/>
	<vehicle id="L_248" type="car7" route="route3_4" depart="291" departLane = "0" departSpeed="11.180000"/>
	<vehicle id="S_249" type="car7" route="route4_2" depart="291" departLane = "0" departSpeed="11.180000"/>
	<vehicle id="S_250" type="car5" route="route1_3" depart="292" departLane = "0" departSpeed="11.180000"/>
	<vehicle id="R_251" type="car9" route="route3_2" depart="292" departLane = "0" departSpeed="11.180000"/>
	<vehicle id="R_252" type="car6" route="route2_1" depart="293" departLane = "1" departSpeed="11.180000"/>
	<vehicle id="R_253" type="car8" route="route4_3" depart="295" departLane = "0" departSpeed="11.180000"/>
	<vehicle id="R_254" type="car5" route="route2_1" depart="296" departLane = "1" departSpeed="11.180000"/>
	<vehicle id="L_255" type="car5" route="route1_2" depart="298" departLane = "0" departSpeed="11.180000"/>
	<vehicle id="S_256" type="car8" route="route3_1" depart="300" departLane = "0" departSpeed="11.180000"/>
	<vehicle id="S_257" type="car8" route="route4_2" depart="300" departLane = "1" departSpeed="11.180000"/>
	<vehicle id="R_258" type="car7" route="route1_4" depart="301" departLane = "2" departSpeed="11.180000"/>
	<vehicle id="L_259" type="car8" route="route2_3" depart="301" departLane = "1" departSpeed="11.180000"/>
	<vehicle id="L_260" type="car7" route="route3_4" depart="301" departLane = "2" departSpeed="11.180000"/>
	<vehicle id="L_261" type="car7" route="route2_3" depart="305" departLane = "1" departSpeed="11.180000"/>
	<vehicle id="L_262" type="car5" route="route2_3" depart="306" departLane = "2" departSpeed="11.180000"/>
	<vehicle id="R_263" type="car5" route="route3_2" depart="306" departLane = "2" departSpeed="11.180000"/>
	<vehicle id="R_264" type="car7" route="route1_4" depart="307" departLane = "0" departSpeed="11.180000"/>
	<vehicle id="R_265" type="car5" route="route4_3" depart="308" departLane = "1" departSpeed="11.180000"/>
	<vehicle id="L_266" type="car9" route="route4_1" depart="310" departLane = "2" departSpeed="11.180000"/>
	<vehicle id="S_267" type="car9" route="route2_4" depart="311" departLane = "2" departSpeed="11.180000"/>
	<vehicle id="L_268" type="car9" route="route3_4" depart="312" departLane = "1" departSpeed="11.180000"/>
	<vehicle id="S_269" type="car5" route="route2_4" depart="313" departLane = "0" departSpeed="11.180000"/>
	<vehicle id="R_270" type="car9" route="route3_2" depart="313" departLane = "1" departSpeed="11.180000"/>
	<vehicle id="R_271" type="car7" route="route2_1" depart="316" departLane = "2" departSpeed="11.180000"/>