<routes>

	<vType id="car5" accel="1000.0" decel="1000.0" sigma="0.0" length="5" minGap="3.000000" maxSpeed="11.180000" tau="0.100000" carFollowModel="CACC" color="255,255,255"/>
	<vType id="car6" accel="1000.0" decel="1000.0" sigma="0.0" length="6" minGap="3.000000" maxSpeed="11.180000" tau="0.100000" carFollowModel="CACC" color="255,255,255"/>
	<vType id="car7" accel="1000.0" decel="1000.0" sigma="0.0" length="7" minGap="3.000000" maxSpeed="11.180000" tau="0.100000" carFollowModel="CACC" color="255,255,255"/>
	<vType id="car8" accel="1000.0" decel="1000.0" sigma="0.0" length="8" minGap="3.000000" maxSpeed="11.180000" tau="0.100000" carFollowModel="CACC" color="255,255,255"/>
	<vType id="car9" accel="1000.0" decel="1000.0" sigma="0.0" length="9" minGap="3.000000" maxSpeed="11.180000" tau="0.100000" carFollowModel="CACC" color="255,255,255"/>

	<route id="route1_2" edges=" 1 -2"/>
	<route id="route1_3" edges=" 1 -3"/>
	<route id="route1_4" edges=" 1 -4"/>
	<route id="route2_1" edges=" 2 -1"/>
	<route id="route2_3" edges=" 2 -3"/>
	<route id="route2_4" edges=" 2 -4"/>
	<route id="route3_1" edges=" 3 -1"/>
	<route id="route3_2" edges=" 3 -2"/>
	<route id="route3_4" edges=" 3 -4"/>
	<route id="route4_1" edges=" 4 -1"/>
	<route id="route4_2" edges=" 4 -2"/>
	<route id="route4_3" edges=" 4 -3"/>

	<vehicle id="R_0_11" type="car8" route="route4_3" depart="11" departLane = "0" departSpeed="11.180000"/>
	<vehicle id="S_1_18" type="car5" route="route2_4" depart="18" departLane = "2" departSpeed="11.180000"/>
	<vehicle id="R_2_19" type="car7" route="route3_2" depart="19" departLane = "1" departSpeed="11.180000"/>
	<vehicle id="R_3_23" type="car8" route="route1_4" depart="23" departLane = "0" departSpeed="11.180000"/>
	<vehicle id="R_4_26" type="car9" route="route3_2" depart="26" departLane = "1" departSpeed="11.180000"/>
	<vehicle id="L_5_29" type="car8" route="route2_3" depart="29" departLane = "1" departSpeed="11.180000"/>
	<vehicle id="R_6_30" type="car7" route="route3_2" depart="30" departLane = "1" departSpeed="11.180000"/>
	<vehicle id="L_7_39" type="car6" route="route3_4" depart="39" departLane = "2" departSpeed="11.180000"/>
	<vehicle id="L_8_48" type="car9" route="route1_2" depart="48" departLane = "0" departSpeed="11.180000"/>
	<vehicle id="S_9_56" type="car5" route="route4_2" depart="56" departLane = "0" departSpeed="11.180000"/>
	<vehicle id="R_10_60" type="car9" route="route1_4" depart="60" departLane = "0" departSpeed="11.180000"/>
	<vehicle id="L_11_79" type="car5" route="route1_2" depart="79" departLane = "2" departSpeed="11.180000"/>
	<vehicle id="R_12_83" type="car9" route="route1_4" depart="83" departLane = "1" departSpeed="11.180000"/>
	<vehicle id="R_13_85" type="car5" route="route1_4" depart="85" departLane = "1" departSpeed="11.180000"/>
	<vehicle id="L_14_92" type="car5" route="route3_4" depart="92" departLane = "2" departSpeed="11.180000"/>
	<vehicle id="S_15_94" type="car9" route="route1_3" depart="94" departLane = "0" departSpeed="11.180000"/>
	<vehicle id="L_16_94" type="car9" route="route2_3" depart="94" departLane = "2" departSpeed="11.180000"/>
	<vehicle id="S_17_98" type="car6" route="route4_2" depart="98" departLane = "2" departSpeed="11.180000"/>
	<vehicle id="L_18_107" type="car9" route="route1_2" depart="107" departLane = "0" departSpeed="11.180000"/>
	<vehicle id="R_19_108" type="car6" route="route2_1" depart="108" departLane = "2" departSpeed="11.180000"/>
	<vehicle id="S_20_120" type="car6" route="route2_4" depart="120" departLane = "2" departSpeed="11.180000"/>
	<vehicle id="R_21_123" type="car6" route="route4_3" depart="123" departLane = "0" departSpeed="11.180000"/>
	<vehicle id="R_22_126" type="car6" route="route2_1" depart="126" departLane = "0" departSpeed="11.180000"/>
	<vehicle id="R_23_130" type="car7" route="route4_3" depart="130" departLane = "0" departSpeed="11.180000"/>
	<vehicle id="L_24_134" type="car7" route="route2_3" depart="134" departLane = "0" departSpeed="11.180000"/>
	<vehicle id="L_25_135" type="car8" route="route3_4" depart="135" departLane = "1" departSpeed="11.180000"/>
	<vehicle id="S_26_136" type="car6" route="route4_2" depart="136" departLane = "2" departSpeed="11.180000"/>
	<vehicle id="L_27_140" type="car5" route="route4_1" depart="140" departLane = "2" departSpeed="11.180000"/>
	<vehicle id="R_28_145" type="car7" route="route3_2" depart="145" departLane = "0" departSpeed="11.180000"/>
	<vehicle id="S_29_149" type="car6" route="route3_1" depart="149" departLane = "2" departSpeed="11.180000"/>
	<vehicle id="S_30_153" type="car9" route="route1_3" depart="153" departLane = "2" departSpeed="11.180000"/>
	<vehicle id="R_31_157" type="car7" route="route1_4" depart="157" departLane = "0" departSpeed="11.180000"/>
	<vehicle id="S_32_162" type="car7" route="route4_2" depart="162" departLane = "0" departSpeed="11.180000"/>
	<vehicle id="L_33_172" type="car5" route="route4_1" depart="172" departLane = "0" departSpeed="11.180000"/>
	<vehicle id="L_34_173" type="car9" route="route2_3" depart="173" departLane = "2" departSpeed="11.180000"/>
	<vehicle id="S_35_176" type="car5" route="route1_3" depart="176" departLane = "0" departSpeed="11.180000"/>
	<vehicle id="S_36_177" type="car7" route="route2_4" depart="177" departLane = "0" departSpeed="11.180000"/>
	<vehicle id="S_37_178" type="car5" route="route2_4" depart="178" departLane = "1" departSpeed="11.180000"/>
	<vehicle id="S_38_181" type="car5" route="route1_3" depart="181" departLane = "1" departSpeed="11.180000"/>
	<vehicle id="S_39_187" type="car6" route="route2_4" depart="187" departLane = "2" departSpeed="11.180000"/>
	<vehicle id="S_40_195" type="car8" route="route3_1" depart="195" departLane = "2" departSpeed="11.180000"/>
	<vehicle id="S_41_197" type="car9" route="route1_3" depart="197" departLane = "2" departSpeed="11.180000"/>
	<vehicle id="R_42_197" type="car7" route="route3_2" depart="197" departLane = "0" departSpeed="11.180000"/>
	<vehicle id="L_43_201" type="car9" route="route3_4" depart="201" departLane = "0" departSpeed="11.180000"/>
	<vehicle id="S_44_202" type="car7" route="route2_4" depart="202" departLane = "1" departSpeed="11.180000"/>
	<vehicle id="S_45_213" type="car9" route="route1_3" depart="213" departLane = "1" departSpeed="11.180000"/>
	<vehicle id="R_46_217" type="car8" route="route4_3" depart="217" departLane = "2" departSpeed="11.180000"/>
	<vehicle id="L_47_218" type="car6" route="route3_4" depart="218" departLane = "1" departSpeed="11.180000"/>
	<vehicle id="S_48_220" type="car7" route="route2_4" depart="220" departLane = "1" departSpeed="11.180000"/>
	<vehicle id="S_49_223" type="car6" route="route3_1" depart="223" departLane = "0" departSpeed="11.180000"/>
	<vehicle id="R_50_234" type="car9" route="route4_3" depart="234" departLane = "2" departSpeed="11.180000"/>
	<vehicle id="S_51_236" type="car7" route="route1_3" depart="236" departLane = "1" departSpeed="11.180000"/>
	<vehicle id="S_52_243" type="car7" route="route4_2" depart="243" departLane = "2" departSpeed="11.180000"/>
	<vehicle id="L_53_266" type="car8" route="route4_1" depart="266" departLane = "1" departSpeed="11.180000"/>
	<vehicle id="S_54_281" type="car9" route="route1_3" depart="281" departLane = "0" departSpeed="11.180000"/>
	<vehicle id="L_55_285" type="car7" route="route3_4" depart="285" departLane = "1" departSpeed="11.180000"/>
	<vehicle id="R_56_307" type="car9" route="route3_2" depart="307" departLane = "0" departSpeed="11.180000"/>
	<vehicle id="S_57_320" type="car8" route="route2_4" depart="320" departLane = "1" departSpeed="11.180000"/>
	<vehicle id="R_58_330" type="car9" route="route1_4" depart="330" departLane = "0" departSpeed="11.180000"/>
	<vehicle id="S_59_335" type="car7" route="route4_2" depart="335" departLane = "0" departSpeed="11.180000"/>
	<vehicle id="R_60_360" type="car6" route="route4_3" depart="360" departLane = "0" departSpeed="11.180000"/>
	<vehicle id="S_61_368" type="car9" route="route3_1" depart="368" departLane = "0" departSpeed="11.180000"/>
	<vehicle id="L_62_370" type="car5" route="route1_2" depart="370" departLane = "0" departSpeed="11.180000"/>
	<vehicle id="S_63_372" type="car7" route="route4_2" depart="372" departLane = "0" departSpeed="11.180000"/>
	<vehicle id="R_64_375" type="car7" route="route2_1" depart="375" departLane = "0" departSpeed="11.180000"/>
	<vehicle id="R_65_376" type="car5" route="route3_2" depart="376" departLane = "2" departSpeed="11.180000"/>
	<vehicle id="S_66_385" type="car5" route="route4_2" depart="385" departLane = "2" departSpeed="11.180000"/>
	<vehicle id="L_67_393" type="car7" route="route1_2" depart="393" departLane = "2" departSpeed="11.180000"/>
	<vehicle id="S_68_397" type="car8" route="route4_2" depart="397" departLane = "1" departSpeed="11.180000"/>
	<vehicle id="L_69_403" type="car6" route="route2_3" depart="403" departLane = "2" departSpeed="11.180000"/>
	<vehicle id="R_70_406" type="car9" route="route3_2" depart="406" departLane = "0" departSpeed="11.180000"/>
	<vehicle id="R_71_415" type="car6" route="route2_1" depart="415" departLane = "0" departSpeed="11.180000"/>
	<vehicle id="S_72_416" type="car5" route="route1_3" depart="416" departLane = "0" departSpeed="11.180000"/>
	<vehicle id="S_73_428" type="car7" route="route2_4" depart="428" departLane = "0" departSpeed="11.180000"/>
	<vehicle id="L_74_445" type="car7" route="route2_3" depart="445" departLane = "2" departSpeed="11.180000"/>
	<vehicle id="S_75_446" type="car9" route="route1_3" depart="446" departLane = "0" departSpeed="11.180000"/>
	<vehicle id="L_76_450" type="car5" route="route1_2" depart="450" departLane = "2" departSpeed="11.180000"/>
	<vehicle id="S_77_452" type="car5" route="route3_1" depart="452" departLane = "0" departSpeed="11.180000"/>
	<vehicle id="S_78_453" type="car9" route="route1_3" depart="453" departLane = "2" departSpeed="11.180000"/>
	<vehicle id="R_79_453" type="car7" route="route2_1" depart="453" departLane = "2" departSpeed="11.180000"/>
	<vehicle id="L_80_456" type="car9" route="route2_3" depart="456" departLane = "2" departSpeed="11.180000"/>
	<vehicle id="L_81_456" type="car6" route="route3_4" depart="456" departLane = "2" departSpeed="11.180000"/>
	<vehicle id="R_82_458" type="car9" route="route3_2" depart="458" departLane = "1" departSpeed="11.180000"/>
	<vehicle id="S_83_474" type="car9" route="route3_1" depart="474" departLane = "1" departSpeed="11.180000"/>
	<vehicle id="S_84_479" type="car5" route="route1_3" depart="479" departLane = "2" departSpeed="11.180000"/>
	<vehicle id="R_85_479" type="car9" route="route2_1" depart="479" departLane = "0" departSpeed="11.180000"/>
	<vehicle id="S_86_485" type="car7" route="route2_4" depart="485" departLane = "1" departSpeed="11.180000"/>
	<vehicle id="R_87_495" type="car6" route="route3_2" depart="495" departLane = "0" departSpeed="11.180000"/>
	<vehicle id="S_88_512" type="car8" route="route3_1" depart="512" departLane = "1" departSpeed="11.180000"/>
	<vehicle id="R_89_516" type="car9" route="route4_3" depart="516" departLane = "1" departSpeed="11.180000"/>
	<vehicle id="R_90_519" type="car5" route="route1_4" depart="519" departLane = "2" departSpeed="11.180000"/>
	<vehicle id="L_91_521" type="car6" route="route1_2" depart="521" departLane = "1" departSpeed="11.180000"/>
	<vehicle id="S_92_540" type="car6" route="route1_3" depart="540" departLane = "1" departSpeed="11.180000"/>
	<vehicle id="R_93_546" type="car6" route="route3_2" depart="546" departLane = "0" departSpeed="11.180000"/>
	<vehicle id="S_94_549" type="car7" route="route3_1" depart="549" departLane = "0" departSpeed="11.180000"/>
	<vehicle id="L_95_555" type="car6" route="route4_1" depart="555" departLane = "1" departSpeed="11.180000"/>
	<vehicle id="S_96_561" type="car5" route="route1_3" depart="561" departLane = "1" departSpeed="11.180000"/>
	<vehicle id="S_97_561" type="car8" route="route2_4" depart="561" departLane = "1" departSpeed="11.180000"/>
	<vehicle id="S_98_575" type="car8" route="route2_4" depart="575" departLane = "0" departSpeed="11.180000"/>
	<vehicle id="S_99_576" type="car7" route="route3_1" depart="576" departLane = "2" departSpeed="11.180000"/>
	<vehicle id="L_100_579" type="car7" route="route4_1" depart="579" departLane = "2" departSpeed="11.180000"/>
	<vehicle id="S_101_594" type="car7" route="route2_4" depart="594" departLane = "1" departSpeed="11.180000"/>
	<vehicle id="S_102_595" type="car9" route="route2_4" depart="595" departLane = "2" departSpeed="11.180000"/>
	<vehicle id="R_103_596" type="car7" route="route2_1" depart="596" departLane = "0" departSpeed="11.180000"/>
	<vehicle id="R_104_615" type="car6" route="route1_4" depart="615" departLane = "0" departSpeed="11.180000"/>
	<vehicle id="S_105_621" type="car6" route="route2_4" depart="621" departLane = "1" departSpeed="11.180000"/>
	<vehicle id="L_106_625" type="car7" route="route2_3" depart="625" departLane = "0" departSpeed="11.180000"/>
	<vehicle id="R_107_634" type="car9" route="route4_3" depart="634" departLane = "0" departSpeed="11.180000"/>
	<vehicle id="R_108_647" type="car9" route="route3_2" depart="647" departLane = "2" departSpeed="11.180000"/>
	<vehicle id="R_109_648" type="car6" route="route1_4" depart="648" departLane = "0" departSpeed="11.180000"/>
	<vehicle id="S_110_650" type="car7" route="route1_3" depart="650" departLane = "2" departSpeed="11.180000"/>
	<vehicle id="L_111_652" type="car8" route="route2_3" depart="652" departLane = "0" departSpeed="11.180000"/>
	<vehicle id="S_112_660" type="car5" route="route4_2" depart="660" departLane = "0" departSpeed="11.180000"/>
	<vehicle id="L_113_661" type="car5" route="route3_4" depart="661" departLane = "0" departSpeed="11.180000"/>
	<vehicle id="R_114_665" type="car9" route="route1_4" depart="665" departLane = "1" departSpeed="11.180000"/>
	<vehicle id="R_115_673" type="car6" route="route1_4" depart="673" departLane = "2" departSpeed="11.180000"/>
	<vehicle id="S_116_681" type="car9" route="route1_3" depart="681" departLane = "2" departSpeed="11.180000"/>
	<vehicle id="R_117_690" type="car9" route="route4_3" depart="690" departLane = "1" departSpeed="11.180000"/>
	<vehicle id="L_118_697" type="car8" route="route4_1" depart="697" departLane = "1" departSpeed="11.180000"/>
	<vehicle id="R_119_698" type="car5" route="route3_2" depart="698" departLane = "0" departSpeed="11.180000"/>
	<vehicle id="S_120_704" type="car8" route="route3_1" depart="704" departLane = "2" departSpeed="11.180000"/>
	<vehicle id="R_121_715" type="car7" route="route1_4" depart="715" departLane = "1" departSpeed="11.180000"/>
	<vehicle id="R_122_715" type="car5" route="route2_1" depart="715" departLane = "2" departSpeed="11.180000"/>
	<vehicle id="R_123_718" type="car6" route="route1_4" depart="718" departLane = "1" departSpeed="11.180000"/>
	<vehicle id="R_124_724" type="car7" route="route1_4" depart="724" departLane = "0" departSpeed="11.180000"/>
	<vehicle id="L_125_727" type="car9" route="route3_4" depart="727" departLane = "2" departSpeed="11.180000"/>
	<vehicle id="L_126_728" type="car6" route="route3_4" depart="728" departLane = "0" departSpeed="11.180000"/>
	<vehicle id="S_127_729" type="car6" route="route1_3" depart="729" departLane = "1" departSpeed="11.180000"/>
	<vehicle id="L_128_731" type="car8" route="route2_3" depart="731" departLane = "1" departSpeed="11.180000"/>
	<vehicle id="S_129_731" type="car8" route="route3_1" depart="731" departLane = "0" departSpeed="11.180000"/>
	<vehicle id="S_130_732" type="car7" route="route4_2" depart="732" departLane = "1" departSpeed="11.180000"/>
	<vehicle id="S_131_734" type="car7" route="route1_3" depart="734" departLane = "1" departSpeed="11.180000"/>
	<vehicle id="S_132_747" type="car7" route="route4_2" depart="747" departLane = "2" departSpeed="11.180000"/>
	<vehicle id="L_133_754" type="car7" route="route1_2" depart="754" departLane = "0" departSpeed="11.180000"/>
	<vehicle id="R_134_755" type="car5" route="route1_4" depart="755" departLane = "1" departSpeed="11.180000"/>
	<vehicle id="R_135_757" type="car5" route="route4_3" depart="757" departLane = "0" departSpeed="11.180000"/>
	<vehicle id="L_136_759" type="car8" route="route3_4" depart="759" departLane = "1" departSpeed="11.180000"/>
	<vehicle id="L_137_763" type="car7" route="route4_1" depart="763" departLane = "2" departSpeed="11.180000"/>
	<vehicle id="S_138_768" type="car8" route="route4_2" depart="768" departLane = "2" departSpeed="11.180000"/>
	<vehicle id="L_139_771" type="car6" route="route3_4" depart="771" departLane = "1" departSpeed="11.180000"/>
	<vehicle id="S_140_773" type="car7" route="route3_1" depart="773" departLane = "1" departSpeed="11.180000"/>
	<vehicle id="R_141_777" type="car7" route="route3_2" depart="777" departLane = "0" departSpeed="11.180000"/>
	<vehicle id="S_142_794" type="car9" route="route4_2" depart="794" departLane = "0" departSpeed="11.180000"/>
	<vehicle id="R_143_798" type="car6" route="route1_4" depart="798" departLane = "1" departSpeed="11.180000"/>
	<vehicle id="R_144_798" type="car7" route="route3_2" depart="798" departLane = "2" departSpeed="11.180000"/>
	<vehicle id="S_145_812" type="car7" route="route2_4" depart="812" departLane = "0" departSpeed="11.180000"/>
	<vehicle id="L_146_828" type="car6" route="route1_2" depart="828" departLane = "0" departSpeed="11.180000"/>
	<vehicle id="S_147_847" type="car5" route="route1_3" depart="847" departLane = "1" departSpeed="11.180000"/>
	<vehicle id="R_148_860" type="car6" route="route1_4" depart="860" departLane = "0" departSpeed="11.180000"/>
	<vehicle id="R_149_878" type="car8" route="route2_1" depart="878" departLane = "1" departSpeed="11.180000"/>
	<vehicle id="L_150_881" type="car5" route="route4_1" depart="881" departLane = "0" departSpeed="11.180000"/>
	<vehicle id="L_151_892" type="car5" route="route4_1" depart="892" departLane = "0" departSpeed="11.180000"/>
	<vehicle id="R_152_895" type="car8" route="route1_4" depart="895" departLane = "2" departSpeed="11.180000"/>
	<vehicle id="R_153_899" type="car5" route="route3_2" depart="899" departLane = "1" departSpeed="11.180000"/>
	<vehicle id="L_154_905" type="car8" route="route1_2" depart="905" departLane = "1" departSpeed="11.180000"/>
	<vehicle id="R_155_907" type="car5" route="route2_1" depart="907" departLane = "0" departSpeed="11.180000"/>
	<vehicle id="R_156_909" type="car7" route="route1_4" depart="909" departLane = "1" departSpeed="11.180000"/>
	<vehicle id="R_157_916" type="car6" route="route4_3" depart="916" departLane = "1" departSpeed="11.180000"/>
	<vehicle id="S_158_920" type="car8" route="route4_2" depart="920" departLane = "1" departSpeed="11.180000"/>
	<vehicle id="S_159_922" type="car8" route="route3_1" depart="922" departLane = "1" departSpeed="11.180000"/>
	<vehicle id="S_160_926" type="car5" route="route1_3" depart="926" departLane = "2" departSpeed="11.180000"/>
	<vehicle id="R_161_937" type="car5" route="route3_2" depart="937" departLane = "1" departSpeed="11.180000"/>
	<vehicle id="L_162_942" type="car9" route="route3_4" depart="942" departLane = "0" departSpeed="11.180000"/>
	<vehicle id="L_163_944" type="car7" route="route3_4" depart="944" departLane = "2" departSpeed="11.180000"/>
	<vehicle id="R_164_948" type="car8" route="route3_2" depart="948" departLane = "0" departSpeed="11.180000"/>
	<vehicle id="R_165_954" type="car8" route="route4_3" depart="954" departLane = "2" departSpeed="11.180000"/>
	<vehicle id="R_166_962" type="car5" route="route3_2" depart="962" departLane = "1" departSpeed="11.180000"/>
	<vehicle id="R_167_966" type="car6" route="route4_3" depart="966" departLane = "2" departSpeed="11.180000"/>
	<vehicle id="L_168_976" type="car6" route="route3_4" depart="976" departLane = "2" departSpeed="11.180000"/>
	<vehicle id="L_169_981" type="car9" route="route4_1" depart="981" departLane = "2" departSpeed="11.180000"/>
	<vehicle id="S_170_984" type="car5" route="route2_4" depart="984" departLane = "0" departSpeed="11.180000"/>
	<vehicle id="R_171_1001" type="car6" route="route2_1" depart="1001" departLane = "0" departSpeed="11.180000"/>
	<vehicle id="R_172_1002" type="car8" route="route2_1" depart="1002" departLane = "2" departSpeed="11.180000"/>
	<vehicle id="S_173_1014" type="car5" route="route3_1" depart="1014" departLane = "0" departSpeed="11.180000"/>
	<vehicle id="R_174_1015" type="car9" route="route2_1" depart="1015" departLane = "0" departSpeed="11.180000"/>
	<vehicle id="L_175_1020" type="car8" route="route4_1" depart="1020" departLane = "2" departSpeed="11.180000"/>
	<vehicle id="L_176_1021" type="car5" route="route3_4" depart="1021" departLane = "0" departSpeed="11.180000"/>
	<vehicle id="L_177_1026" type="car8" route="route4_1" depart="1026" departLane = "1" departSpeed="11.180000"/>
	<vehicle id="L_178_1043" type="car9" route="route4_1" depart="1043" departLane = "1" departSpeed="11.180000"/>
	<vehicle id="L_179_1045" type="car7" route="route2_3" depart="1045" departLane = "2" departSpeed="11.180000"/>
	<vehicle id="L_180_1045" type="car7" route="route4_1" depart="1045" departLane = "0" departSpeed="11.180000"/>
	<vehicle id="S_181_1047" type="car5" route="route3_1" depart="1047" departLane = "2" departSpeed="11.180000"/>
	<vehicle id="L_182_1052" type="car8" route="route3_4" depart="1052" departLane = "1" departSpeed="11.180000"/>
	<vehicle id="S_183_1053" type="car6" route="route3_1" depart="1053" departLane = "2" departSpeed="11.180000"/>
	<vehicle id="R_184_1057" type="car9" route="route1_4" depart="1057" departLane = "2" departSpeed="11.180000"/>
	<vehicle id="S_185_1057" type="car8" route="route4_2" depart="1057" departLane = "2" departSpeed="11.180000"/>
	<vehicle id="S_186_1058" type="car7" route="route4_2" depart="1058" departLane = "2" departSpeed="11.180000"/>
	<vehicle id="S_187_1059" type="car8" route="route2_4" depart="1059" departLane = "2" departSpeed="11.180000"/>
	<vehicle id="R_188_1067" type="car9" route="route1_4" depart="1067" departLane = "2" departSpeed="11.180000"/>
	<vehicle id="R_189_1070" type="car7" route="route4_3" depart="1070" departLane = "2" departSpeed="11.180000"/>
	<vehicle id="R_190_1077" type="car7" route="route4_3" depart="1077" departLane = "0" departSpeed="11.180000"/>
	<vehicle id="S_191_1093" type="car6" route="route3_1" depart="1093" departLane = "1" departSpeed="11.180000"/>
	<vehicle id="R_192_1099" type="car6" route="route2_1" depart="1099" departLane = "2" departSpeed="11.180000"/>
	<vehicle id="L_193_1103" type="car9" route="route1_2" depart="1103" departLane = "1" departSpeed="11.180000"/>
	<vehicle id="S_194_1103" type="car8" route="route4_2" depart="1103" departLane = "1" departSpeed="11.180000"/>
	<vehicle id="R_195_1110" type="car8" route="route3_2" depart="1110" departLane = "2" departSpeed="11.180000"/>
	<vehicle id="S_196_1115" type="car9" route="route1_3" depart="1115" departLane = "1" departSpeed="11.180000"/>
	<vehicle id="R_197_1124" type="car9" route="route2_1" depart="1124" departLane = "0" departSpeed="11.180000"/>
	<vehicle id="R_198_1125" type="car8" route="route1_4" depart="1125" departLane = "1" departSpeed="11.180000"/>
	<vehicle id="L_199_1133" type="car7" route="route2_3" depart="1133" departLane = "2" departSpeed="11.180000"/>
	<vehicle id="L_200_1133" type="car9" route="route3_4" depart="1133" departLane = "0" departSpeed="11.180000"/>
	<vehicle id="L_201_1135" type="car8" route="route4_1" depart="1135" departLane = "2" departSpeed="11.180000"/>
	<vehicle id="R_202_1137" type="car9" route="route3_2" depart="1137" departLane = "1" departSpeed="11.180000"/>
	<vehicle id="S_203_1148" type="car8" route="route4_2" depart="1148" departLane = "2" departSpeed="11.180000"/>
	<vehicle id="S_204_1150" type="car7" route="route2_4" depart="1150" departLane = "1" departSpeed="11.180000"/>
	<vehicle id="L_205_1153" type="car8" route="route3_4" depart="1153" departLane = "2" departSpeed="11.180000"/>
	<vehicle id="L_206_1167" type="car6" route="route4_1" depart="1167" departLane = "2" departSpeed="11.180000"/>
	<vehicle id="S_207_1176" type="car8" route="route1_3" depart="1176" departLane = "2" departSpeed="11.180000"/>
	<vehicle id="L_208_1179" type="car8" route="route4_1" depart="1179" departLane = "2" departSpeed="11.180000"/>
	<vehicle id="S_209_1183" type="car9" route="route4_2" depart="1183" departLane = "1" departSpeed="11.180000"/>
	<vehicle id="L_210_1194" type="car7" route="route2_3" depart="1194" departLane = "2" departSpeed="11.180000"/>
	<vehicle id="S_211_1195" type="car8" route="route1_3" depart="1195" departLane = "0" departSpeed="11.180000"/>
	<vehicle id="R_212_1197" type="car5" route="route2_1" depart="1197" departLane = "2" departSpeed="11.180000"/>
	<vehicle id="S_213_1216" type="car8" route="route3_1" depart="1216" departLane = "0" departSpeed="11.180000"/>
	<vehicle id="R_214_1222" type="car8" route="route1_4" depart="1222" departLane = "2" departSpeed="11.180000"/>
	<vehicle id="L_215_1230" type="car6" route="route2_3" depart="1230" departLane = "1" departSpeed="11.180000"/>
	<vehicle id="S_216_1231" type="car7" route="route1_3" depart="1231" departLane = "0" departSpeed="11.180000"/>
	<vehicle id="S_217_1232" type="car9" route="route2_4" depart="1232" departLane = "2" departSpeed="11.180000"/>
	<vehicle id="R_218_1234" type="car6" route="route2_1" depart="1234" departLane = "1" departSpeed="11.180000"/>
	<vehicle id="R_219_1240" type="car5" route="route3_2" depart="1240" departLane = "2" departSpeed="11.180000"/>
	<vehicle id="S_220_1242" type="car9" route="route4_2" depart="1242" departLane = "2" departSpeed="11.180000"/>
	<vehicle id="R_221_1257" type="car5" route="route4_3" depart="1257" departLane = "0" departSpeed="11.180000"/>
	<vehicle id="R_222_1259" type="car7" route="route2_1" depart="1259" departLane = "2" departSpeed="11.180000"/>
	<vehicle id="R_223_1266" type="car9" route="route4_3" depart="1266" departLane = "2" departSpeed="11.180000"/>
	<vehicle id="R_224_1273" type="car8" route="route1_4" depart="1273" departLane = "0" departSpeed="11.180000"/>
	<vehicle id="R_225_1276" type="car5" route="route4_3" depart="1276" departLane = "1" departSpeed="11.180000"/>
	<vehicle id="S_226_1286" type="car7" route="route2_4" depart="1286" departLane = "1" departSpeed="11.180000"/>
	<vehicle id="S_227_1292" type="car7" route="route1_3" depart="1292" departLane = "1" departSpeed="11.180000"/>
	<vehicle id="L_228_1294" type="car5" route="route4_1" depart="1294" departLane = "0" departSpeed="11.180000"/>
	<vehicle id="S_229_1298" type="car5" route="route4_2" depart="1298" departLane = "1" departSpeed="11.180000"/>
	<vehicle id="R_230_1300" type="car9" route="route2_1" depart="1300" departLane = "0" departSpeed="11.180000"/>
	<vehicle id="S_231_1325" type="car5" route="route1_3" depart="1325" departLane = "0" departSpeed="11.180000"/>
	<vehicle id="L_232_1332" type="car8" route="route1_2" depart="1332" departLane = "0" departSpeed="11.180000"/>
	<vehicle id="L_233_1333" type="car6" route="route2_3" depart="1333" departLane = "2" departSpeed="11.180000"/>
	<vehicle id="L_234_1336" type="car6" route="route1_2" depart="1336" departLane = "1" departSpeed="11.180000"/>
	<vehicle id="L_235_1351" type="car7" route="route3_4" depart="1351" departLane = "2" departSpeed="11.180000"/>
	<vehicle id="L_236_1352" type="car9" route="route2_3" depart="1352" departLane = "2" departSpeed="11.180000"/>
	<vehicle id="S_237_1355" type="car6" route="route2_4" depart="1355" departLane = "1" departSpeed="11.180000"/>
	<vehicle id="L_238_1359" type="car6" route="route2_3" depart="1359" departLane = "0" departSpeed="11.180000"/>
	<vehicle id="R_239_1363" type="car5" route="route3_2" depart="1363" departLane = "1" departSpeed="11.180000"/>
	<vehicle id="S_240_1378" type="car7" route="route3_1" depart="1378" departLane = "1" departSpeed="11.180000"/>
	<vehicle id="S_241_1380" type="car8" route="route2_4" depart="1380" departLane = "1" departSpeed="11.180000"/>
	<vehicle id="S_242_1385" type="car8" route="route4_2" depart="1385" departLane = "1" departSpeed="11.180000"/>
	<vehicle id="L_243_1392" type="car7" route="route1_2" depart="1392" departLane = "0" departSpeed="11.180000"/>
	<vehicle id="L_244_1403" type="car8" route="route2_3" depart="1403" departLane = "2" departSpeed="11.180000"/>
	<vehicle id="L_245_1405" type="car8" route="route4_1" depart="1405" departLane = "2" departSpeed="11.180000"/>
	<vehicle id="R_246_1412" type="car5" route="route2_1" depart="1412" departLane = "1" departSpeed="11.180000"/>
	<vehicle id="L_247_1422" type="car5" route="route3_4" depart="1422" departLane = "0" departSpeed="11.180000"/>
	<vehicle id="S_248_1431" type="car6" route="route2_4" depart="1431" departLane = "2" departSpeed="11.180000"/>
	<vehicle id="R_249_1432" type="car7" route="route1_4" depart="1432" departLane = "1" departSpeed="11.180000"/>
	<vehicle id="S_250_1434" type="car5" route="route4_2" depart="1434" departLane = "1" departSpeed="11.180000"/>
	<vehicle id="L_251_1437" type="car5" route="route2_3" depart="1437" departLane = "2" departSpeed="11.180000"/>
	<vehicle id="R_252_1438" type="car9" route="route4_3" depart="1438" departLane = "2" departSpeed="11.180000"/>
	<vehicle id="S_253_1443" type="car8" route="route1_3" depart="1443" departLane = "0" departSpeed="11.180000"/>
	<vehicle id="L_254_1451" type="car6" route="route3_4" depart="1451" departLane = "0" departSpeed="11.180000"/>
	<vehicle id="S_255_1454" type="car8" route="route2_4" depart="1454" departLane = "0" departSpeed="11.180000"/>
	<vehicle id="S_256_1457" type="car9" route="route2_4" depart="1457" departLane = "2" departSpeed="11.180000"/>
	<vehicle id="L_257_1462" type="car8" route="route1_2" depart="1462" departLane = "0" departSpeed="11.180000"/>
	<vehicle id="S_258_1465" type="car6" route="route2_4" depart="1465" departLane = "0" departSpeed="11.180000"/>
	<vehicle id="S_259_1472" type="car6" route="route1_3" depart="1472" departLane = "0" departSpeed="11.180000"/>