<routes>

	<vType id="car5" accel="1000.0" decel="1000.0" sigma="0.0" length="5" minGap="3.000000" maxSpeed="11.180000" tau="0.100000" carFollowModel="CACC" color="255,255,255"/>
	<vType id="car6" accel="1000.0" decel="1000.0" sigma="0.0" length="6" minGap="3.000000" maxSpeed="11.180000" tau="0.100000" carFollowModel="CACC" color="255,255,255"/>
	<vType id="car7" accel="1000.0" decel="1000.0" sigma="0.0" length="7" minGap="3.000000" maxSpeed="11.180000" tau="0.100000" carFollowModel="CACC" color="255,255,255"/>
	<vType id="car8" accel="1000.0" decel="1000.0" sigma="0.0" length="8" minGap="3.000000" maxSpeed="11.180000" tau="0.100000" carFollowModel="CACC" color="255,255,255"/>
	<vType id="car9" accel="1000.0" decel="1000.0" sigma="0.0" length="9" minGap="3.000000" maxSpeed="11.180000" tau="0.100000" carFollowModel="CACC" color="255,255,255"/>

	<route id="route1_2" edges=" 1 -2"/>
	<route id="route1_3" edges=" 1 -3"/>
	<route id="route1_4" edges=" 1 -4"/>
	<route id="route2_1" edges=" 2 -1"/>
	<route id="route2_3" edges=" 2 -3"/>
	<route id="route2_4" edges=" 2 -4"/>
	<route id="route3_1" edges=" 3 -1"/>
	<route id="route3_2" edges=" 3 -2"/>
	<route id="route3_4" edges=" 3 -4"/>
	<route id="route4_1" edges=" 4 -1"/>
	<route id="route4_2" edges=" 4 -2"/>
	<route id="route4_3" edges=" 4 -3"/>

	<vehicle id="S_0_0" type="car9" route="route3_1" depart="0" departLane = "1" departSpeed="11.180000"/>
	<vehicle id="R_1_0" type="car8" route="route4_3" depart="0" departLane = "1" departSpeed="11.180000"/>
	<vehicle id="S_2_1" type="car9" route="route1_3" depart="1" departLane = "0" departSpeed="11.180000"/>
	<vehicle id="S_3_1" type="car5" route="route2_4" depart="1" departLane = "0" departSpeed="11.180000"/>
	<vehicle id="S_4_1" type="car9" route="route4_2" depart="1" departLane = "2" departSpeed="11.180000"/>
	<vehicle id="S_5_2" type="car5" route="route2_4" depart="2" departLane = "2" departSpeed="11.180000"/>
	<vehicle id="S_6_3" type="car7" route="route1_3" depart="3" departLane = "0" departSpeed="11.180000"/>
	<vehicle id="R_7_3" type="car6" route="route2_1" depart="3" departLane = "2" departSpeed="11.180000"/>
	<vehicle id="R_8_3" type="car7" route="route4_3" depart="3" departLane = "2" departSpeed="11.180000"/>
	<vehicle id="S_9_4" type="car5" route="route1_3" depart="4" departLane = "2" departSpeed="11.180000"/>
	<vehicle id="R_10_4" type="car5" route="route2_1" depart="4" departLane = "1" departSpeed="11.180000"/>
	<vehicle id="S_11_5" type="car7" route="route1_3" depart="5" departLane = "2" departSpeed="11.180000"/>
	<vehicle id="S_12_5" type="car6" route="route3_1" depart="5" departLane = "2" departSpeed="11.180000"/>
	<vehicle id="R_13_5" type="car9" route="route4_3" depart="5" departLane = "0" departSpeed="11.180000"/>
	<vehicle id="L_14_6" type="car7" route="route1_2" depart="6" departLane = "0" departSpeed="11.180000"/>
	<vehicle id="L_15_6" type="car9" route="route4_1" depart="6" departLane = "1" departSpeed="11.180000"/>
	<vehicle id="L_16_7" type="car9" route="route1_2" depart="7" departLane = "0" departSpeed="11.180000"/>
	<vehicle id="R_17_7" type="car6" route="route2_1" depart="7" departLane = "2" departSpeed="11.180000"/>
	<vehicle id="R_18_8" type="car8" route="route2_1" depart="8" departLane = "2" departSpeed="11.180000"/>
	<vehicle id="R_19_8" type="car7" route="route3_2" depart="8" departLane = "0" departSpeed="11.180000"/>
	<vehicle id="R_20_8" type="car5" route="route4_3" depart="8" departLane = "0" departSpeed="11.180000"/>
	<vehicle id="R_21_9" type="car6" route="route3_2" depart="9" departLane = "0" departSpeed="11.180000"/>
	<vehicle id="S_22_11" type="car9" route="route2_4" depart="11" departLane = "2" departSpeed="11.180000"/>
	<vehicle id="R_23_11" type="car6" route="route3_2" depart="11" departLane = "0" departSpeed="11.180000"/>
	<vehicle id="L_24_12" type="car7" route="route4_1" depart="12" departLane = "2" departSpeed="11.180000"/>
	<vehicle id="S_25_13" type="car5" route="route1_3" depart="13" departLane = "2" departSpeed="11.180000"/>
	<vehicle id="L_26_13" type="car7" route="route2_3" depart="13" departLane = "2" departSpeed="11.180000"/>
	<vehicle id="R_27_13" type="car7" route="route4_3" depart="13" departLane = "2" departSpeed="11.180000"/>
	<vehicle id="S_28_14" type="car7" route="route1_3" depart="14" departLane = "0" departSpeed="11.180000"/>
	<vehicle id="S_29_14" type="car5" route="route3_1" depart="14" departLane = "0" departSpeed="11.180000"/>
	<vehicle id="L_30_15" type="car9" route="route2_3" depart="15" departLane = "2" departSpeed="11.180000"/>
	<vehicle id="R_31_15" type="car6" route="route4_3" depart="15" departLane = "0" departSpeed="11.180000"/>
	<vehicle id="S_32_16" type="car5" route="route3_1" depart="16" departLane = "1" departSpeed="11.180000"/>
	<vehicle id="S_33_16" type="car6" route="route4_2" depart="16" departLane = "0" departSpeed="11.180000"/>
	<vehicle id="L_34_17" type="car8" route="route2_3" depart="17" departLane = "0" departSpeed="11.180000"/>
	<vehicle id="S_35_17" type="car5" route="route3_1" depart="17" departLane = "0" departSpeed="11.180000"/>
	<vehicle id="S_36_18" type="car7" route="route3_1" depart="18" departLane = "0" departSpeed="11.180000"/>
	<vehicle id="S_37_18" type="car5" route="route4_2" depart="18" departLane = "0" departSpeed="11.180000"/>
	<vehicle id="R_38_19" type="car8" route="route2_1" depart="19" departLane = "0" departSpeed="11.180000"/>
	<vehicle id="R_39_19" type="car8" route="route3_2" depart="19" departLane = "1" departSpeed="11.180000"/>
	<vehicle id="S_40_20" type="car6" route="route2_4" depart="20" departLane = "2" departSpeed="11.180000"/>
	<vehicle id="S_41_20" type="car6" route="route4_2" depart="20" departLane = "2" departSpeed="11.180000"/>
	<vehicle id="R_42_21" type="car5" route="route2_1" depart="21" departLane = "1" departSpeed="11.180000"/>
	<vehicle id="L_43_21" type="car5" route="route4_1" depart="21" departLane = "0" departSpeed="11.180000"/>
	<vehicle id="R_44_22" type="car9" route="route1_4" depart="22" departLane = "1" departSpeed="11.180000"/>
	<vehicle id="R_45_23" type="car7" route="route1_4" depart="23" departLane = "2" departSpeed="11.180000"/>
	<vehicle id="L_46_23" type="car5" route="route2_3" depart="23" departLane = "2" departSpeed="11.180000"/>
	<vehicle id="L_47_23" type="car7" route="route3_4" depart="23" departLane = "0" departSpeed="11.180000"/>
	<vehicle id="L_48_24" type="car7" route="route2_3" depart="24" departLane = "1" departSpeed="11.180000"/>
	<vehicle id="S_49_25" type="car8" route="route4_2" depart="25" departLane = "1" departSpeed="11.180000"/>
	<vehicle id="S_50_26" type="car6" route="route3_1" depart="26" departLane = "2" departSpeed="11.180000"/>
	<vehicle id="S_51_27" type="car8" route="route1_3" depart="27" departLane = "0" departSpeed="11.180000"/>
	<vehicle id="R_52_27" type="car9" route="route2_1" depart="27" departLane = "2" departSpeed="11.180000"/>
	<vehicle id="L_53_27" type="car9" route="route4_1" depart="27" departLane = "2" departSpeed="11.180000"/>
	<vehicle id="L_54_28" type="car5" route="route1_2" depart="28" departLane = "2" departSpeed="11.180000"/>
	<vehicle id="L_55_28" type="car7" route="route2_3" depart="28" departLane = "0" departSpeed="11.180000"/>
	<vehicle id="S_56_28" type="car9" route="route4_2" depart="28" departLane = "1" departSpeed="11.180000"/>
	<vehicle id="L_57_29" type="car8" route="route2_3" depart="29" departLane = "0" departSpeed="11.180000"/>
	<vehicle id="S_58_29" type="car5" route="route3_1" depart="29" departLane = "1" departSpeed="11.180000"/>
	<vehicle id="L_59_30" type="car5" route="route3_4" depart="30" departLane = "2" departSpeed="11.180000"/>
	<vehicle id="L_60_31" type="car8" route="route1_2" depart="31" departLane = "0" departSpeed="11.180000"/>
	<vehicle id="L_61_31" type="car6" route="route3_4" depart="31" departLane = "0" departSpeed="11.180000"/>
	<vehicle id="S_62_31" type="car9" route="route4_2" depart="31" departLane = "0" departSpeed="11.180000"/>
	<vehicle id="L_63_32" type="car6" route="route2_3" depart="32" departLane = "2" departSpeed="11.180000"/>
	<vehicle id="L_64_32" type="car5" route="route4_1" depart="32" departLane = "0" departSpeed="11.180000"/>
	<vehicle id="S_65_33" type="car5" route="route1_3" depart="33" departLane = "1" departSpeed="11.180000"/>
	<vehicle id="R_66_33" type="car5" route="route2_1" depart="33" departLane = "1" departSpeed="11.180000"/>
	<vehicle id="L_67_33" type="car7" route="route4_1" depart="33" departLane = "2" departSpeed="11.180000"/>
	<vehicle id="R_68_34" type="car7" route="route1_4" depart="34" departLane = "0" departSpeed="11.180000"/>
	<vehicle id="L_69_34" type="car7" route="route3_4" depart="34" departLane = "0" departSpeed="11.180000"/>
	<vehicle id="R_70_35" type="car9" route="route4_3" depart="35" departLane = "2" departSpeed="11.180000"/>
	<vehicle id="S_71_37" type="car6" route="route1_3" depart="37" departLane = "2" departSpeed="11.180000"/>
	<vehicle id="R_72_37" type="car7" route="route2_1" depart="37" departLane = "2" departSpeed="11.180000"/>
	<vehicle id="S_73_37" type="car7" route="route3_1" depart="37" departLane = "0" departSpeed="11.180000"/>
	<vehicle id="R_74_37" type="car5" route="route4_3" depart="37" departLane = "1" departSpeed="11.180000"/>
	<vehicle id="L_75_38" type="car5" route="route1_2" depart="38" departLane = "2" departSpeed="11.180000"/>
	<vehicle id="L_76_38" type="car6" route="route2_3" depart="38" departLane = "0" departSpeed="11.180000"/>
	<vehicle id="L_77_38" type="car9" route="route4_1" depart="38" departLane = "1" departSpeed="11.180000"/>
	<vehicle id="L_78_39" type="car8" route="route1_2" depart="39" departLane = "0" departSpeed="11.180000"/>
	<vehicle id="L_79_39" type="car5" route="route4_1" depart="39" departLane = "2" departSpeed="11.180000"/>
	<vehicle id="L_80_40" type="car7" route="route1_2" depart="40" departLane = "1" departSpeed="11.180000"/>
	<vehicle id="S_81_40" type="car9" route="route2_4" depart="40" departLane = "0" departSpeed="11.180000"/>
	<vehicle id="L_82_40" type="car5" route="route4_1" depart="40" departLane = "1" departSpeed="11.180000"/>
	<vehicle id="R_83_41" type="car8" route="route1_4" depart="41" departLane = "2" departSpeed="11.180000"/>
	<vehicle id="S_84_41" type="car7" route="route2_4" depart="41" departLane = "1" departSpeed="11.180000"/>
	<vehicle id="L_85_42" type="car5" route="route3_4" depart="42" departLane = "2" departSpeed="11.180000"/>
	<vehicle id="S_86_42" type="car6" route="route4_2" depart="42" departLane = "0" departSpeed="11.180000"/>
	<vehicle id="L_87_43" type="car5" route="route2_3" depart="43" departLane = "0" departSpeed="11.180000"/>
	<vehicle id="S_88_43" type="car7" route="route3_1" depart="43" departLane = "2" departSpeed="11.180000"/>
	<vehicle id="R_89_43" type="car9" route="route4_3" depart="43" departLane = "1" departSpeed="11.180000"/>
	<vehicle id="L_90_44" type="car7" route="route2_3" depart="44" departLane = "0" departSpeed="11.180000"/>
	<vehicle id="R_91_44" type="car9" route="route3_2" depart="44" departLane = "1" departSpeed="11.180000"/>
	<vehicle id="L_92_45" type="car5" route="route1_2" depart="45" departLane = "1" departSpeed="11.180000"/>
	<vehicle id="R_93_45" type="car5" route="route2_1" depart="45" departLane = "2" departSpeed="11.180000"/>
	<vehicle id="L_94_45" type="car6" route="route4_1" depart="45" departLane = "2" departSpeed="11.180000"/>
	<vehicle id="L_95_46" type="car7" route="route1_2" depart="46" departLane = "1" departSpeed="11.180000"/>
	<vehicle id="S_96_46" type="car6" route="route2_4" depart="46" departLane = "0" departSpeed="11.180000"/>
	<vehicle id="L_97_46" type="car8" route="route4_1" depart="46" departLane = "1" departSpeed="11.180000"/>
	<vehicle id="R_98_47" type="car5" route="route1_4" depart="47" departLane = "0" departSpeed="11.180000"/>
	<vehicle id="L_99_47" type="car8" route="route4_1" depart="47" departLane = "1" departSpeed="11.180000"/>
	<vehicle id="R_100_48" type="car8" route="route2_1" depart="48" departLane = "1" departSpeed="11.180000"/>
	<vehicle id="L_101_49" type="car7" route="route4_1" depart="49" departLane = "2" departSpeed="11.180000"/>
	<vehicle id="R_102_50" type="car7" route="route2_1" depart="50" departLane = "0" departSpeed="11.180000"/>
	<vehicle id="R_103_50" type="car9" route="route4_3" depart="50" departLane = "1" departSpeed="11.180000"/>
	<vehicle id="L_104_51" type="car8" route="route1_2" depart="51" departLane = "2" departSpeed="11.180000"/>
	<vehicle id="S_105_51" type="car9" route="route2_4" depart="51" departLane = "0" departSpeed="11.180000"/>
	<vehicle id="S_106_51" type="car6" route="route4_2" depart="51" departLane = "0" departSpeed="11.180000"/>
	<vehicle id="S_107_52" type="car8" route="route1_3" depart="52" departLane = "0" departSpeed="11.180000"/>
	<vehicle id="L_108_52" type="car6" route="route2_3" depart="52" departLane = "0" departSpeed="11.180000"/>
	<vehicle id="R_109_52" type="car9" route="route4_3" depart="52" departLane = "1" departSpeed="11.180000"/>
	<vehicle id="S_110_53" type="car9" route="route1_3" depart="53" departLane = "2" departSpeed="11.180000"/>
	<vehicle id="R_111_53" type="car9" route="route2_1" depart="53" departLane = "0" departSpeed="11.180000"/>
	<vehicle id="R_112_54" type="car9" route="route3_2" depart="54" departLane = "2" departSpeed="11.180000"/>
	<vehicle id="L_113_54" type="car8" route="route4_1" depart="54" departLane = "1" departSpeed="11.180000"/>
	<vehicle id="R_114_55" type="car5" route="route2_1" depart="55" departLane = "0" departSpeed="11.180000"/>
	<vehicle id="S_115_55" type="car7" route="route4_2" depart="55" departLane = "2" departSpeed="11.180000"/>
	<vehicle id="R_116_56" type="car7" route="route1_4" depart="56" departLane = "1" departSpeed="11.180000"/>
	<vehicle id="S_117_56" type="car8" route="route3_1" depart="56" departLane = "1" departSpeed="11.180000"/>
	<vehicle id="R_118_57" type="car6" route="route1_4" depart="57" departLane = "2" departSpeed="11.180000"/>
	<vehicle id="R_119_57" type="car7" route="route2_1" depart="57" departLane = "2" departSpeed="11.180000"/>
	<vehicle id="R_120_57" type="car8" route="route3_2" depart="57" departLane = "0" departSpeed="11.180000"/>
	<vehicle id="S_121_57" type="car9" route="route4_2" depart="57" departLane = "1" departSpeed="11.180000"/>
	<vehicle id="R_122_58" type="car8" route="route3_2" depart="58" departLane = "1" departSpeed="11.180000"/>
	<vehicle id="S_123_58" type="car8" route="route4_2" depart="58" departLane = "1" departSpeed="11.180000"/>
	<vehicle id="S_124_59" type="car8" route="route1_3" depart="59" departLane = "0" departSpeed="11.180000"/>
	<vehicle id="S_125_59" type="car9" route="route3_1" depart="59" departLane = "2" departSpeed="11.180000"/>
	<vehicle id="L_126_59" type="car5" route="route4_1" depart="59" departLane = "1" departSpeed="11.180000"/>
	<vehicle id="L_127_60" type="car5" route="route3_4" depart="60" departLane = "1" departSpeed="11.180000"/>
	<vehicle id="S_128_61" type="car7" route="route2_4" depart="61" departLane = "2" departSpeed="11.180000"/>
	<vehicle id="L_129_62" type="car8" route="route2_3" depart="62" departLane = "0" departSpeed="11.180000"/>
	<vehicle id="S_130_64" type="car8" route="route2_4" depart="64" departLane = "1" departSpeed="11.180000"/>
	<vehicle id="S_131_64" type="car8" route="route3_1" depart="64" departLane = "0" departSpeed="11.180000"/>
	<vehicle id="L_132_64" type="car5" route="route4_1" depart="64" departLane = "2" departSpeed="11.180000"/>
	<vehicle id="L_133_65" type="car5" route="route3_4" depart="65" departLane = "1" departSpeed="11.180000"/>
	<vehicle id="S_134_66" type="car9" route="route3_1" depart="66" departLane = "0" departSpeed="11.180000"/>
	<vehicle id="S_135_67" type="car5" route="route1_3" depart="67" departLane = "1" departSpeed="11.180000"/>
	<vehicle id="S_136_67" type="car8" route="route2_4" depart="67" departLane = "2" departSpeed="11.180000"/>
	<vehicle id="S_137_68" type="car8" route="route1_3" depart="68" departLane = "0" departSpeed="11.180000"/>
	<vehicle id="S_138_68" type="car8" route="route4_2" depart="68" departLane = "1" departSpeed="11.180000"/>
	<vehicle id="S_139_69" type="car7" route="route2_4" depart="69" departLane = "1" departSpeed="11.180000"/>
	<vehicle id="R_140_69" type="car5" route="route3_2" depart="69" departLane = "0" departSpeed="11.180000"/>
	<vehicle id="S_141_69" type="car7" route="route4_2" depart="69" departLane = "0" departSpeed="11.180000"/>
	<vehicle id="S_142_70" type="car6" route="route1_3" depart="70" departLane = "0" departSpeed="11.180000"/>
	<vehicle id="R_143_70" type="car6" route="route3_2" depart="70" departLane = "0" departSpeed="11.180000"/>
	<vehicle id="R_144_70" type="car5" route="route4_3" depart="70" departLane = "2" departSpeed="11.180000"/>
	<vehicle id="R_145_71" type="car5" route="route2_1" depart="71" departLane = "2" departSpeed="11.180000"/>
	<vehicle id="L_146_71" type="car6" route="route4_1" depart="71" departLane = "0" departSpeed="11.180000"/>
	<vehicle id="R_147_72" type="car7" route="route1_4" depart="72" departLane = "1" departSpeed="11.180000"/>
	<vehicle id="R_148_72" type="car6" route="route3_2" depart="72" departLane = "0" departSpeed="11.180000"/>
	<vehicle id="R_149_72" type="car7" route="route4_3" depart="72" departLane = "1" departSpeed="11.180000"/>
	<vehicle id="L_150_73" type="car7" route="route1_2" depart="73" departLane = "2" departSpeed="11.180000"/>
	<vehicle id="R_151_73" type="car5" route="route2_1" depart="73" departLane = "0" departSpeed="11.180000"/>
	<vehicle id="L_152_73" type="car6" route="route4_1" depart="73" departLane = "1" departSpeed="11.180000"/>
	<vehicle id="S_153_74" type="car6" route="route3_1" depart="74" departLane = "0" departSpeed="11.180000"/>
	<vehicle id="L_154_75" type="car5" route="route1_2" depart="75" departLane = "1" departSpeed="11.180000"/>
	<vehicle id="R_155_75" type="car5" route="route4_3" depart="75" departLane = "2" departSpeed="11.180000"/>
	<vehicle id="R_156_76" type="car9" route="route1_4" depart="76" departLane = "1" departSpeed="11.180000"/>
	<vehicle id="S_157_76" type="car9" route="route2_4" depart="76" departLane = "0" departSpeed="11.180000"/>
	<vehicle id="S_158_76" type="car7" route="route3_1" depart="76" departLane = "2" departSpeed="11.180000"/>
	<vehicle id="L_159_76" type="car7" route="route4_1" depart="76" departLane = "1" departSpeed="11.180000"/>
	<vehicle id="R_160_77" type="car8" route="route3_2" depart="77" departLane = "0" departSpeed="11.180000"/>
	<vehicle id="S_161_78" type="car7" route="route2_4" depart="78" departLane = "1" departSpeed="11.180000"/>
	<vehicle id="R_162_78" type="car5" route="route4_3" depart="78" departLane = "0" departSpeed="11.180000"/>
	<vehicle id="R_163_79" type="car9" route="route1_4" depart="79" departLane = "2" departSpeed="11.180000"/>
	<vehicle id="R_164_79" type="car6" route="route4_3" depart="79" departLane = "1" departSpeed="11.180000"/>
	<vehicle id="R_165_80" type="car8" route="route2_1" depart="80" departLane = "0" departSpeed="11.180000"/>
	<vehicle id="L_166_80" type="car6" route="route3_4" depart="80" departLane = "2" departSpeed="11.180000"/>
	<vehicle id="S_167_80" type="car5" route="route4_2" depart="80" departLane = "2" departSpeed="11.180000"/>
	<vehicle id="R_168_81" type="car7" route="route1_4" depart="81" departLane = "0" departSpeed="11.180000"/>
	<vehicle id="L_169_81" type="car8" route="route2_3" depart="81" departLane = "2" departSpeed="11.180000"/>
	<vehicle id="S_170_81" type="car5" route="route4_2" depart="81" departLane = "1" departSpeed="11.180000"/>
	<vehicle id="L_171_82" type="car8" route="route4_1" depart="82" departLane = "2" departSpeed="11.180000"/>
	<vehicle id="L_172_83" type="car6" route="route1_2" depart="83" departLane = "1" departSpeed="11.180000"/>
	<vehicle id="L_173_83" type="car5" route="route3_4" depart="83" departLane = "2" departSpeed="11.180000"/>
	<vehicle id="R_174_83" type="car5" route="route4_3" depart="83" departLane = "2" departSpeed="11.180000"/>
	<vehicle id="L_175_84" type="car9" route="route1_2" depart="84" departLane = "1" departSpeed="11.180000"/>
	<vehicle id="S_176_84" type="car7" route="route4_2" depart="84" departLane = "2" departSpeed="11.180000"/>
	<vehicle id="R_177_85" type="car6" route="route1_4" depart="85" departLane = "2" departSpeed="11.180000"/>
	<vehicle id="R_178_85" type="car7" route="route3_2" depart="85" departLane = "1" departSpeed="11.180000"/>
	<vehicle id="L_179_86" type="car6" route="route1_2" depart="86" departLane = "0" departSpeed="11.180000"/>
	<vehicle id="L_180_86" type="car7" route="route2_3" depart="86" departLane = "1" departSpeed="11.180000"/>
	<vehicle id="S_181_87" type="car9" route="route3_1" depart="87" departLane = "2" departSpeed="11.180000"/>
	<vehicle id="S_182_87" type="car7" route="route4_2" depart="87" departLane = "1" departSpeed="11.180000"/>
	<vehicle id="L_183_88" type="car6" route="route1_2" depart="88" departLane = "2" departSpeed="11.180000"/>
	<vehicle id="R_184_88" type="car5" route="route2_1" depart="88" departLane = "2" departSpeed="11.180000"/>
	<vehicle id="S_185_88" type="car8" route="route3_1" depart="88" departLane = "2" departSpeed="11.180000"/>
	<vehicle id="S_186_88" type="car7" route="route4_2" depart="88" departLane = "2" departSpeed="11.180000"/>
	<vehicle id="S_187_89" type="car8" route="route1_3" depart="89" departLane = "1" departSpeed="11.180000"/>
	<vehicle id="R_188_89" type="car9" route="route2_1" depart="89" departLane = "1" departSpeed="11.180000"/>
	<vehicle id="L_189_89" type="car5" route="route3_4" depart="89" departLane = "2" departSpeed="11.180000"/>
	<vehicle id="S_190_89" type="car8" route="route4_2" depart="89" departLane = "0" departSpeed="11.180000"/>
	<vehicle id="L_191_90" type="car6" route="route1_2" depart="90" departLane = "2" departSpeed="11.180000"/>
	<vehicle id="L_192_90" type="car8" route="route2_3" depart="90" departLane = "1" departSpeed="11.180000"/>
	<vehicle id="R_193_90" type="car5" route="route4_3" depart="90" departLane = "2" departSpeed="11.180000"/>
	<vehicle id="R_194_91" type="car8" route="route2_1" depart="91" departLane = "2" departSpeed="11.180000"/>
	<vehicle id="S_195_91" type="car5" route="route3_1" depart="91" departLane = "0" departSpeed="11.180000"/>
	<vehicle id="L_196_93" type="car7" route="route1_2" depart="93" departLane = "2" departSpeed="11.180000"/>
	<vehicle id="L_197_93" type="car8" route="route2_3" depart="93" departLane = "1" departSpeed="11.180000"/>
	<vehicle id="L_198_93" type="car8" route="route4_1" depart="93" departLane = "1" departSpeed="11.180000"/>
	<vehicle id="S_199_94" type="car6" route="route3_1" depart="94" departLane = "2" departSpeed="11.180000"/>
	<vehicle id="L_200_95" type="car8" route="route1_2" depart="95" departLane = "0" departSpeed="11.180000"/>
	<vehicle id="R_201_95" type="car8" route="route2_1" depart="95" departLane = "1" departSpeed="11.180000"/>
	<vehicle id="S_202_95" type="car6" route="route4_2" depart="95" departLane = "0" departSpeed="11.180000"/>
	<vehicle id="L_203_96" type="car9" route="route1_2" depart="96" departLane = "0" departSpeed="11.180000"/>
	<vehicle id="L_204_96" type="car5" route="route4_1" depart="96" departLane = "2" departSpeed="11.180000"/>
	<vehicle id="L_205_97" type="car6" route="route2_3" depart="97" departLane = "2" departSpeed="11.180000"/>
	<vehicle id="R_206_97" type="car9" route="route3_2" depart="97" departLane = "1" departSpeed="11.180000"/>
	<vehicle id="S_207_97" type="car7" route="route4_2" depart="97" departLane = "2" departSpeed="11.180000"/>
	<vehicle id="S_208_98" type="car9" route="route3_1" depart="98" departLane = "0" departSpeed="11.180000"/>
	<vehicle id="R_209_99" type="car8" route="route4_3" depart="99" departLane = "1" departSpeed="11.180000"/>
	<vehicle id="R_210_100" type="car6" route="route1_4" depart="100" departLane = "1" departSpeed="11.180000"/>
	<vehicle id="L_211_100" type="car5" route="route2_3" depart="100" departLane = "0" departSpeed="11.180000"/>
	<vehicle id="S_212_100" type="car5" route="route3_1" depart="100" departLane = "1" departSpeed="11.180000"/>
	<vehicle id="L_213_100" type="car6" route="route4_1" depart="100" departLane = "0" departSpeed="11.180000"/>
	<vehicle id="L_214_101" type="car6" route="route1_2" depart="101" departLane = "1" departSpeed="11.180000"/>
	<vehicle id="R_215_101" type="car8" route="route3_2" depart="101" departLane = "0" departSpeed="11.180000"/>
	<vehicle id="L_216_101" type="car5" route="route4_1" depart="101" departLane = "2" departSpeed="11.180000"/>
	<vehicle id="S_217_102" type="car7" route="route2_4" depart="102" departLane = "1" departSpeed="11.180000"/>
	<vehicle id="S_218_103" type="car5" route="route1_3" depart="103" departLane = "2" departSpeed="11.180000"/>
	<vehicle id="R_219_103" type="car6" route="route2_1" depart="103" departLane = "0" departSpeed="11.180000"/>
	<vehicle id="S_220_103" type="car7" route="route4_2" depart="103" departLane = "0" departSpeed="11.180000"/>
	<vehicle id="R_221_104" type="car7" route="route3_2" depart="104" departLane = "1" departSpeed="11.180000"/>
	<vehicle id="L_222_104" type="car6" route="route4_1" depart="104" departLane = "2" departSpeed="11.180000"/>
	<vehicle id="R_223_105" type="car5" route="route1_4" depart="105" departLane = "2" departSpeed="11.180000"/>
	<vehicle id="L_224_105" type="car8" route="route2_3" depart="105" departLane = "1" departSpeed="11.180000"/>
	<vehicle id="R_225_105" type="car8" route="route3_2" depart="105" departLane = "1" departSpeed="11.180000"/>
	<vehicle id="R_226_105" type="car5" route="route4_3" depart="105" departLane = "0" departSpeed="11.180000"/>
	<vehicle id="L_227_106" type="car6" route="route1_2" depart="106" departLane = "0" departSpeed="11.180000"/>
	<vehicle id="R_228_106" type="car8" route="route2_1" depart="106" departLane = "0" departSpeed="11.180000"/>
	<vehicle id="R_229_107" type="car6" route="route3_2" depart="107" departLane = "0" departSpeed="11.180000"/>
	<vehicle id="L_230_107" type="car7" route="route4_1" depart="107" departLane = "0" departSpeed="11.180000"/>
	<vehicle id="L_231_108" type="car5" route="route2_3" depart="108" departLane = "1" departSpeed="11.180000"/>
	<vehicle id="S_232_108" type="car6" route="route4_2" depart="108" departLane = "2" departSpeed="11.180000"/>
	<vehicle id="L_233_109" type="car7" route="route4_1" depart="109" departLane = "2" departSpeed="11.180000"/>
	<vehicle id="L_234_110" type="car5" route="route1_2" depart="110" departLane = "0" departSpeed="11.180000"/>
	<vehicle id="S_235_110" type="car6" route="route4_2" depart="110" departLane = "1" departSpeed="11.180000"/>
	<vehicle id="S_236_111" type="car5" route="route1_3" depart="111" departLane = "2" departSpeed="11.180000"/>
	<vehicle id="S_237_112" type="car7" route="route1_3" depart="112" departLane = "2" departSpeed="11.180000"/>
	<vehicle id="L_238_112" type="car9" route="route2_3" depart="112" departLane = "2" departSpeed="11.180000"/>
	<vehicle id="S_239_112" type="car9" route="route3_1" depart="112" departLane = "2" departSpeed="11.180000"/>
	<vehicle id="R_240_113" type="car5" route="route1_4" depart="113" departLane = "0" departSpeed="11.180000"/>
	<vehicle id="L_241_113" type="car8" route="route4_1" depart="113" departLane = "2" departSpeed="11.180000"/>
	<vehicle id="S_242_114" type="car6" route="route1_3" depart="114" departLane = "0" departSpeed="11.180000"/>
	<vehicle id="L_243_114" type="car5" route="route4_1" depart="114" departLane = "2" departSpeed="11.180000"/>
	<vehicle id="R_244_115" type="car9" route="route3_2" depart="115" departLane = "0" departSpeed="11.180000"/>
	<vehicle id="S_245_116" type="car8" route="route1_3" depart="116" departLane = "0" departSpeed="11.180000"/>
	<vehicle id="S_246_116" type="car6" route="route4_2" depart="116" departLane = "2" departSpeed="11.180000"/>
	<vehicle id="L_247_117" type="car6" route="route3_4" depart="117" departLane = "2" departSpeed="11.180000"/>
	<vehicle id="L_248_118" type="car9" route="route2_3" depart="118" departLane = "0" departSpeed="11.180000"/>
	<vehicle id="S_249_118" type="car5" route="route4_2" depart="118" departLane = "1" departSpeed="11.180000"/>
	<vehicle id="S_250_119" type="car8" route="route3_1" depart="119" departLane = "1" departSpeed="11.180000"/>
	<vehicle id="R_251_120" type="car9" route="route2_1" depart="120" departLane = "0" departSpeed="11.180000"/>
	<vehicle id="R_252_120" type="car7" route="route3_2" depart="120" departLane = "0" departSpeed="11.180000"/>
	<vehicle id="R_253_121" type="car6" route="route1_4" depart="121" departLane = "0" departSpeed="11.180000"/>
	<vehicle id="R_254_121" type="car6" route="route2_1" depart="121" departLane = "2" departSpeed="11.180000"/>
	<vehicle id="L_255_121" type="car6" route="route3_4" depart="121" departLane = "1" departSpeed="11.180000"/>
	<vehicle id="S_256_121" type="car6" route="route4_2" depart="121" departLane = "2" departSpeed="11.180000"/>
	<vehicle id="S_257_122" type="car9" route="route1_3" depart="122" departLane = "1" departSpeed="11.180000"/>
	<vehicle id="R_258_122" type="car8" route="route4_3" depart="122" departLane = "0" departSpeed="11.180000"/>
	<vehicle id="L_259_123" type="car5" route="route2_3" depart="123" departLane = "0" departSpeed="11.180000"/>
	<vehicle id="L_260_123" type="car7" route="route3_4" depart="123" departLane = "2" departSpeed="11.180000"/>
	<vehicle id="L_261_123" type="car7" route="route4_1" depart="123" departLane = "0" departSpeed="11.180000"/>
	<vehicle id="L_262_124" type="car8" route="route2_3" depart="124" departLane = "0" departSpeed="11.180000"/>
	<vehicle id="R_263_124" type="car7" route="route3_2" depart="124" departLane = "1" departSpeed="11.180000"/>
	<vehicle id="R_264_124" type="car8" route="route4_3" depart="124" departLane = "1" departSpeed="11.180000"/>
	<vehicle id="R_265_125" type="car7" route="route1_4" depart="125" departLane = "1" departSpeed="11.180000"/>