<routes>

	<vType id="car5" accel="100.0" decel="100.0" sigma="0.0" length="5" minGap="3.000000" maxSpeed="11.180000" tau="0.100000" carFollowModel="CACC" color="255,255,255"/>
	<vType id="car6" accel="100.0" decel="100.0" sigma="0.0" length="6" minGap="3.000000" maxSpeed="11.180000" tau="0.100000" carFollowModel="CACC" color="255,255,255"/>
	<vType id="car7" accel="100.0" decel="100.0" sigma="0.0" length="7" minGap="3.000000" maxSpeed="11.180000" tau="0.100000" carFollowModel="CACC" color="255,255,255"/>
	<vType id="car8" accel="100.0" decel="100.0" sigma="0.0" length="8" minGap="3.000000" maxSpeed="11.180000" tau="0.100000" carFollowModel="CACC" color="255,255,255"/>
	<vType id="car9" accel="100.0" decel="100.0" sigma="0.0" length="9" minGap="3.000000" maxSpeed="11.180000" tau="0.100000" carFollowModel="CACC" color="255,255,255"/>

	<route id="route0_1_2" edges=" 001_001_1"/>
	<route id="route0_1_3" edges=" 001_001_1"/>
	<route id="route0_1_4" edges=" 001_001_1"/>
	<route id="route0_2_1" edges=" 001_001_2"/>
	<route id="route0_2_3" edges=" 001_001_2"/>
	<route id="route0_2_4" edges=" 001_001_2"/>
	<route id="route0_3_1" edges=" 001_001_3"/>
	<route id="route0_3_2" edges=" 001_001_3"/>
	<route id="route0_3_4" edges=" 001_001_3"/>
	<route id="route0_4_1" edges=" 001_001_4"/>
	<route id="route0_4_2" edges=" 001_001_4"/>
	<route id="route0_4_3" edges=" 001_001_4"/>
	<route id="route1_1_2" edges=" 002_001_1"/>
	<route id="route1_1_3" edges=" 002_001_1"/>
	<route id="route1_1_4" edges=" 002_001_1"/>
	<route id="route1_2_1" edges=" 002_001_2"/>
	<route id="route1_2_3" edges=" 002_001_2"/>
	<route id="route1_2_4" edges=" 002_001_2"/>
	<route id="route1_3_1" edges=" 002_001_3"/>
	<route id="route1_3_2" edges=" 002_001_3"/>
	<route id="route1_3_4" edges=" 002_001_3"/>
	<route id="route1_4_1" edges=" 002_001_4"/>
	<route id="route1_4_2" edges=" 002_001_4"/>
	<route id="route1_4_3" edges=" 002_001_4"/>

	<vehicle id="SR_0" type="car8" route="route0_1_3" depart="0" departLane = "1" departSpeed="11.180000"/>
	<vehicle id="SX_1" type="car6" route="route0_2_4" depart="0" departLane = "1" departSpeed="11.180000"/>
	<vehicle id="SX_2" type="car9" route="route0_4_2" depart="0" departLane = "1" departSpeed="11.180000"/>
	<vehicle id="RL_3" type="car7" route="route1_2_1" depart="0" departLane = "0" departSpeed="11.180000"/>
	<vehicle id="LX_4" type="car5" route="route1_3_4" depart="0" departLane = "2" departSpeed="11.180000"/>
	<vehicle id="LX_5" type="car8" route="route0_1_2" depart="1" departLane = "2" departSpeed="11.180000"/>
	<vehicle id="SX_6" type="car7" route="route0_2_4" depart="1" departLane = "1" departSpeed="11.180000"/>
	<vehicle id="RR_7" type="car6" route="route0_4_3" depart="1" departLane = "0" departSpeed="11.180000"/>
	<vehicle id="SX_8" type="car5" route="route1_2_4" depart="1" departLane = "1" departSpeed="11.180000"/>
	<vehicle id="LX_9" type="car7" route="route1_3_4" depart="1" departLane = "2" departSpeed="11.180000"/>
	<vehicle id="LX_10" type="car9" route="route1_2_3" depart="2" departLane = "2" departSpeed="11.180000"/>
	<vehicle id="SL_11" type="car7" route="route1_3_1" depart="2" departLane = "1" departSpeed="11.180000"/>
	<vehicle id="SX_12" type="car5" route="route1_4_2" depart="2" departLane = "1" departSpeed="11.180000"/>
	<vehicle id="LX_13" type="car5" route="route0_1_2" depart="3" departLane = "2" departSpeed="11.180000"/>
	<vehicle id="LX_14" type="car8" route="route0_4_1" depart="3" departLane = "2" departSpeed="11.180000"/>
	<vehicle id="SX_15" type="car5" route="route1_4_2" depart="3" departLane = "1" departSpeed="11.180000"/>
	<vehicle id="RX_16" type="car6" route="route0_2_1" depart="4" departLane = "0" departSpeed="11.180000"/>
	<vehicle id="LX_17" type="car9" route="route1_2_3" depart="4" departLane = "2" departSpeed="11.180000"/>
	<vehicle id="SS_18" type="car7" route="route1_3_1" depart="4" departLane = "1" departSpeed="11.180000"/>
	<vehicle id="LL_19" type="car9" route="route1_4_1" depart="4" departLane = "2" departSpeed="11.180000"/>
	<vehicle id="RX_20" type="car7" route="route0_1_4" depart="5" departLane = "0" departSpeed="11.180000"/>
	<vehicle id="RX_21" type="car5" route="route1_4_3" depart="5" departLane = "0" departSpeed="11.180000"/>
	<vehicle id="SL_22" type="car6" route="route0_1_3" depart="6" departLane = "1" departSpeed="11.180000"/>
	<vehicle id="SX_23" type="car9" route="route0_4_2" depart="6" departLane = "1" departSpeed="11.180000"/>
	<vehicle id="LR_24" type="car8" route="route1_4_1" depart="6" departLane = "2" departSpeed="11.180000"/>
	<vehicle id="SX_25" type="car8" route="route0_4_2" depart="7" departLane = "1" departSpeed="11.180000"/>
	<vehicle id="RL_26" type="car7" route="route1_2_1" depart="7" departLane = "0" departSpeed="11.180000"/>
	<vehicle id="RX_27" type="car6" route="route1_3_2" depart="7" departLane = "0" departSpeed="11.180000"/>
	<vehicle id="LS_28" type="car8" route="route0_2_3" depart="8" departLane = "2" departSpeed="11.180000"/>
	<vehicle id="SX_29" type="car6" route="route0_4_2" depart="8" departLane = "1" departSpeed="11.180000"/>
	<vehicle id="SX_30" type="car6" route="route1_2_4" depart="8" departLane = "1" departSpeed="11.180000"/>
	<vehicle id="LX_31" type="car8" route="route1_3_4" depart="8" departLane = "2" departSpeed="11.180000"/>
	<vehicle id="SS_32" type="car6" route="route0_1_3" depart="9" departLane = "1" departSpeed="11.180000"/>
	<vehicle id="SR_33" type="car9" route="route1_3_1" depart="9" departLane = "1" departSpeed="11.180000"/>
	<vehicle id="RR_34" type="car9" route="route0_4_3" depart="10" departLane = "0" departSpeed="11.180000"/>
	<vehicle id="RS_35" type="car7" route="route1_2_1" depart="10" departLane = "0" departSpeed="11.180000"/>
	<vehicle id="RX_36" type="car5" route="route0_1_4" depart="11" departLane = "0" departSpeed="11.180000"/>
	<vehicle id="RX_37" type="car5" route="route0_2_1" depart="11" departLane = "0" departSpeed="11.180000"/>
	<vehicle id="SX_38" type="car8" route="route1_2_4" depart="11" departLane = "1" departSpeed="11.180000"/>
	<vehicle id="SX_39" type="car5" route="route0_2_4" depart="12" departLane = "1" departSpeed="11.180000"/>
	<vehicle id="RX_40" type="car9" route="route1_3_2" depart="12" departLane = "0" departSpeed="11.180000"/>
	<vehicle id="LX_41" type="car6" route="route0_1_2" depart="13" departLane = "2" departSpeed="11.180000"/>
	<vehicle id="SX_42" type="car5" route="route0_2_4" depart="13" departLane = "1" departSpeed="11.180000"/>
	<vehicle id="RR_43" type="car5" route="route0_4_3" depart="13" departLane = "0" departSpeed="11.180000"/>
	<vehicle id="RX_44" type="car8" route="route1_3_2" depart="13" departLane = "0" departSpeed="11.180000"/>
	<vehicle id="LS_45" type="car5" route="route1_4_1" depart="13" departLane = "2" departSpeed="11.180000"/>
	<vehicle id="LL_46" type="car5" route="route0_2_3" depart="14" departLane = "2" departSpeed="11.180000"/>
	<vehicle id="LX_47" type="car7" route="route0_1_2" depart="15" departLane = "2" departSpeed="11.180000"/>
	<vehicle id="LR_48" type="car6" route="route0_2_3" depart="15" departLane = "2" departSpeed="11.180000"/>
	<vehicle id="SX_49" type="car6" route="route0_4_2" depart="15" departLane = "1" departSpeed="11.180000"/>
	<vehicle id="SX_50" type="car9" route="route1_4_2" depart="15" departLane = "1" departSpeed="11.180000"/>
	<vehicle id="SL_51" type="car5" route="route0_1_3" depart="16" departLane = "1" departSpeed="11.180000"/>
	<vehicle id="SX_52" type="car5" route="route0_2_4" depart="16" departLane = "1" departSpeed="11.180000"/>
	<vehicle id="LX_53" type="car5" route="route1_2_3" depart="16" departLane = "2" departSpeed="11.180000"/>
	<vehicle id="SR_54" type="car7" route="route1_3_1" depart="16" departLane = "1" departSpeed="11.180000"/>
	<vehicle id="RX_55" type="car9" route="route0_1_4" depart="17" departLane = "0" departSpeed="11.180000"/>
	<vehicle id="LX_56" type="car6" route="route0_4_1" depart="17" departLane = "2" departSpeed="11.180000"/>
	<vehicle id="RX_57" type="car6" route="route0_1_4" depart="18" departLane = "0" departSpeed="11.180000"/>
	<vehicle id="SX_58" type="car6" route="route0_4_2" depart="18" departLane = "1" departSpeed="11.180000"/>
	<vehicle id="SX_59" type="car7" route="route1_2_4" depart="18" departLane = "1" departSpeed="11.180000"/>
	<vehicle id="RX_60" type="car9" route="route1_3_2" depart="18" departLane = "0" departSpeed="11.180000"/>
	<vehicle id="LS_61" type="car8" route="route1_4_1" depart="18" departLane = "2" departSpeed="11.180000"/>
	<vehicle id="SX_62" type="car6" route="route0_2_4" depart="19" departLane = "1" departSpeed="11.180000"/>
	<vehicle id="LX_63" type="car7" route="route1_2_3" depart="19" departLane = "2" departSpeed="11.180000"/>
	<vehicle id="RX_64" type="car6" route="route1_3_2" depart="19" departLane = "0" departSpeed="11.180000"/>
	<vehicle id="SX_65" type="car5" route="route1_4_2" depart="19" departLane = "1" departSpeed="11.180000"/>
	<vehicle id="LR_66" type="car5" route="route0_2_3" depart="20" departLane = "2" departSpeed="11.180000"/>
	<vehicle id="SX_67" type="car6" route="route0_4_2" depart="20" departLane = "1" departSpeed="11.180000"/>
	<vehicle id="RS_68" type="car8" route="route1_2_1" depart="20" departLane = "0" departSpeed="11.180000"/>
	<vehicle id="SS_69" type="car7" route="route1_3_1" depart="20" departLane = "1" departSpeed="11.180000"/>
	<vehicle id="RX_70" type="car6" route="route1_4_3" depart="20" departLane = "0" departSpeed="11.180000"/>
	<vehicle id="LL_71" type="car8" route="route0_2_3" depart="21" departLane = "2" departSpeed="11.180000"/>
	<vehicle id="RR_72" type="car8" route="route0_4_3" depart="21" departLane = "0" departSpeed="11.180000"/>
	<vehicle id="RR_73" type="car6" route="route0_4_3" depart="22" departLane = "0" departSpeed="11.180000"/>
	<vehicle id="SR_74" type="car7" route="route1_3_1" depart="22" departLane = "1" departSpeed="11.180000"/>
	<vehicle id="SX_75" type="car5" route="route1_4_2" depart="22" departLane = "1" departSpeed="11.180000"/>
	<vehicle id="LX_76" type="car6" route="route0_1_2" depart="23" departLane = "2" departSpeed="11.180000"/>
	<vehicle id="LS_77" type="car9" route="route0_2_3" depart="23" departLane = "2" departSpeed="11.180000"/>
	<vehicle id="RR_78" type="car7" route="route0_4_3" depart="23" departLane = "0" departSpeed="11.180000"/>
	<vehicle id="LR_79" type="car6" route="route0_2_3" depart="24" departLane = "2" departSpeed="11.180000"/>
	<vehicle id="LX_80" type="car9" route="route1_2_3" depart="24" departLane = "2" departSpeed="11.180000"/>
	<vehicle id="LX_81" type="car8" route="route1_3_4" depart="24" departLane = "2" departSpeed="11.180000"/>
	<vehicle id="RX_82" type="car5" route="route0_1_4" depart="25" departLane = "0" departSpeed="11.180000"/>
	<vehicle id="RX_83" type="car6" route="route0_2_1" depart="25" departLane = "0" departSpeed="11.180000"/>
	<vehicle id="LX_84" type="car7" route="route1_2_3" depart="25" departLane = "2" departSpeed="11.180000"/>
	<vehicle id="RX_85" type="car8" route="route1_3_2" depart="25" departLane = "0" departSpeed="11.180000"/>
	<vehicle id="SX_86" type="car5" route="route1_4_2" depart="25" departLane = "1" departSpeed="11.180000"/>
	<vehicle id="SS_87" type="car5" route="route0_1_3" depart="26" departLane = "1" departSpeed="11.180000"/>
	<vehicle id="SX_88" type="car6" route="route0_4_2" depart="26" departLane = "1" departSpeed="11.180000"/>
	<vehicle id="RX_89" type="car7" route="route0_1_4" depart="27" departLane = "0" departSpeed="11.180000"/>
	<vehicle id="RX_90" type="car5" route="route0_2_1" depart="27" departLane = "0" departSpeed="11.180000"/>
	<vehicle id="LX_91" type="car8" route="route0_4_1" depart="27" departLane = "2" departSpeed="11.180000"/>
	<vehicle id="LX_92" type="car5" route="route1_2_3" depart="27" departLane = "2" departSpeed="11.180000"/>
	<vehicle id="LS_93" type="car6" route="route1_4_1" depart="27" departLane = "2" departSpeed="11.180000"/>
	<vehicle id="RL_94" type="car5" route="route0_4_3" depart="28" departLane = "0" departSpeed="11.180000"/>
	<vehicle id="SX_95" type="car6" route="route1_2_4" depart="28" departLane = "1" departSpeed="11.180000"/>
	<vehicle id="SS_96" type="car6" route="route1_3_1" depart="28" departLane = "1" departSpeed="11.180000"/>
	<vehicle id="RX_97" type="car8" route="route1_4_3" depart="28" departLane = "0" departSpeed="11.180000"/>
	<vehicle id="SX_98" type="car5" route="route1_2_4" depart="29" departLane = "1" departSpeed="11.180000"/>
	<vehicle id="RX_99" type="car6" route="route1_3_2" depart="29" departLane = "0" departSpeed="11.180000"/>
	<vehicle id="RX_100" type="car5" route="route0_2_1" depart="30" departLane = "0" departSpeed="11.180000"/>
	<vehicle id="RR_101" type="car8" route="route0_4_3" depart="30" departLane = "0" departSpeed="11.180000"/>
	<vehicle id="RS_102" type="car6" route="route1_2_1" depart="30" departLane = "0" departSpeed="11.180000"/>
	<vehicle id="LR_103" type="car6" route="route1_4_1" depart="30" departLane = "2" departSpeed="11.180000"/>
	<vehicle id="LX_104" type="car7" route="route0_1_2" depart="31" departLane = "2" departSpeed="11.180000"/>
	<vehicle id="RX_105" type="car5" route="route0_2_1" depart="31" departLane = "0" departSpeed="11.180000"/>
	<vehicle id="SX_106" type="car6" route="route0_4_2" depart="31" departLane = "1" departSpeed="11.180000"/>
	<vehicle id="LX_107" type="car9" route="route1_2_3" depart="31" departLane = "2" departSpeed="11.180000"/>
	<vehicle id="SX_108" type="car8" route="route1_4_2" depart="31" departLane = "1" departSpeed="11.180000"/>
	<vehicle id="SL_109" type="car5" route="route0_1_3" depart="32" departLane = "1" departSpeed="11.180000"/>
	<vehicle id="LL_110" type="car5" route="route0_2_3" depart="32" departLane = "2" departSpeed="11.180000"/>
	<vehicle id="SX_111" type="car9" route="route1_2_4" depart="32" departLane = "1" departSpeed="11.180000"/>
	<vehicle id="RX_112" type="car9" route="route1_3_2" depart="32" departLane = "0" departSpeed="11.180000"/>
	<vehicle id="SX_113" type="car9" route="route0_4_2" depart="33" departLane = "1" departSpeed="11.180000"/>
	<vehicle id="LX_114" type="car5" route="route1_2_3" depart="33" departLane = "2" departSpeed="11.180000"/>
	<vehicle id="LX_115" type="car8" route="route1_3_4" depart="33" departLane = "2" departSpeed="11.180000"/>
	<vehicle id="SX_116" type="car7" route="route1_4_2" depart="33" departLane = "1" departSpeed="11.180000"/>
	<vehicle id="SS_117" type="car7" route="route0_1_3" depart="34" departLane = "1" departSpeed="11.180000"/>
	<vehicle id="LX_118" type="car8" route="route0_4_1" depart="34" departLane = "2" departSpeed="11.180000"/>
	<vehicle id="RX_119" type="car9" route="route1_4_3" depart="34" departLane = "0" departSpeed="11.180000"/>
	<vehicle id="LX_120" type="car8" route="route0_1_2" depart="35" departLane = "2" departSpeed="11.180000"/>
	<vehicle id="RX_121" type="car6" route="route0_2_1" depart="35" departLane = "0" departSpeed="11.180000"/>
	<vehicle id="SS_122" type="car9" route="route1_3_1" depart="35" departLane = "1" departSpeed="11.180000"/>
	<vehicle id="RX_123" type="car9" route="route1_4_3" depart="35" departLane = "0" departSpeed="11.180000"/>
	<vehicle id="RX_124" type="car9" route="route0_1_4" depart="36" departLane = "0" departSpeed="11.180000"/>
	<vehicle id="LS_125" type="car8" route="route0_2_3" depart="36" departLane = "2" departSpeed="11.180000"/>
	<vehicle id="RL_126" type="car5" route="route1_2_1" depart="36" departLane = "0" departSpeed="11.180000"/>
	<vehicle id="SX_127" type="car5" route="route0_2_4" depart="37" departLane = "1" departSpeed="11.180000"/>
	<vehicle id="RS_128" type="car6" route="route1_2_1" depart="37" departLane = "0" departSpeed="11.180000"/>
	<vehicle id="SX_129" type="car7" route="route0_2_4" depart="38" departLane = "1" departSpeed="11.180000"/>
	<vehicle id="LX_130" type="car9" route="route1_2_3" depart="38" departLane = "2" departSpeed="11.180000"/>
	<vehicle id="LS_131" type="car8" route="route1_4_1" depart="38" departLane = "2" departSpeed="11.180000"/>
	<vehicle id="LX_132" type="car6" route="route0_1_2" depart="39" departLane = "2" departSpeed="11.180000"/>
	<vehicle id="LX_133" type="car5" route="route0_4_1" depart="39" departLane = "2" departSpeed="11.180000"/>
	<vehicle id="LX_134" type="car9" route="route1_3_4" depart="39" departLane = "2" departSpeed="11.180000"/>
	<vehicle id="RX_135" type="car5" route="route0_2_1" depart="40" departLane = "0" departSpeed="11.180000"/>
	<vehicle id="SR_136" type="car5" route="route1_3_1" depart="40" departLane = "1" departSpeed="11.180000"/>
	<vehicle id="RX_137" type="car6" route="route1_4_3" depart="40" departLane = "0" departSpeed="11.180000"/>
	<vehicle id="LX_138" type="car8" route="route0_1_2" depart="41" departLane = "2" departSpeed="11.180000"/>
	<vehicle id="SX_139" type="car5" route="route0_2_4" depart="41" departLane = "1" departSpeed="11.180000"/>
	<vehicle id="LX_140" type="car6" route="route0_4_1" depart="41" departLane = "2" departSpeed="11.180000"/>
	<vehicle id="RR_141" type="car9" route="route1_2_1" depart="41" departLane = "0" departSpeed="11.180000"/>
	<vehicle id="SL_142" type="car8" route="route1_3_1" depart="41" departLane = "1" departSpeed="11.180000"/>
	<vehicle id="LR_143" type="car7" route="route1_4_1" depart="41" departLane = "2" departSpeed="11.180000"/>
	<vehicle id="LX_144" type="car9" route="route0_1_2" depart="42" departLane = "2" departSpeed="11.180000"/>
	<vehicle id="LX_145" type="car8" route="route0_4_1" depart="42" departLane = "2" departSpeed="11.180000"/>
	<vehicle id="LX_146" type="car9" route="route1_2_3" depart="42" departLane = "2" departSpeed="11.180000"/>
	<vehicle id="LX_147" type="car6" route="route1_3_4" depart="42" departLane = "2" departSpeed="11.180000"/>
	<vehicle id="SS_148" type="car5" route="route0_1_3" depart="43" departLane = "1" departSpeed="11.180000"/>
	<vehicle id="RX_149" type="car8" route="route1_4_3" depart="43" departLane = "0" departSpeed="11.180000"/>
	<vehicle id="SL_150" type="car7" route="route0_1_3" depart="44" departLane = "1" departSpeed="11.180000"/>
	<vehicle id="SX_151" type="car9" route="route0_2_4" depart="44" departLane = "1" departSpeed="11.180000"/>
	<vehicle id="LX_152" type="car9" route="route0_4_1" depart="44" departLane = "2" departSpeed="11.180000"/>
	<vehicle id="RL_153" type="car7" route="route1_2_1" depart="44" departLane = "0" departSpeed="11.180000"/>
	<vehicle id="RX_154" type="car5" route="route1_3_2" depart="44" departLane = "0" departSpeed="11.180000"/>
	<vehicle id="SS_155" type="car8" route="route0_1_3" depart="45" departLane = "1" departSpeed="11.180000"/>
	<vehicle id="RX_156" type="car7" route="route0_2_1" depart="45" departLane = "0" departSpeed="11.180000"/>
	<vehicle id="SX_157" type="car5" route="route0_4_2" depart="45" departLane = "1" departSpeed="11.180000"/>
	<vehicle id="SX_158" type="car6" route="route1_2_4" depart="45" departLane = "1" departSpeed="11.180000"/>
	<vehicle id="RX_159" type="car9" route="route1_3_2" depart="45" departLane = "0" departSpeed="11.180000"/>
	<vehicle id="SR_160" type="car8" route="route0_1_3" depart="46" departLane = "1" departSpeed="11.180000"/>
	<vehicle id="RR_161" type="car9" route="route1_2_1" depart="46" departLane = "0" departSpeed="11.180000"/>
	<vehicle id="LR_162" type="car6" route="route1_4_1" depart="46" departLane = "2" departSpeed="11.180000"/>
	<vehicle id="SR_163" type="car6" route="route0_1_3" depart="47" departLane = "1" departSpeed="11.180000"/>
	<vehicle id="LX_164" type="car5" route="route0_4_1" depart="47" departLane = "2" departSpeed="11.180000"/>
	<vehicle id="LX_165" type="car9" route="route1_3_4" depart="47" departLane = "2" departSpeed="11.180000"/>
	<vehicle id="RX_166" type="car9" route="route0_1_4" depart="48" departLane = "0" departSpeed="11.180000"/>
	<vehicle id="SX_167" type="car7" route="route0_2_4" depart="48" departLane = "1" departSpeed="11.180000"/>
	<vehicle id="RX_168" type="car8" route="route1_3_2" depart="48" departLane = "0" departSpeed="11.180000"/>
	<vehicle id="RX_169" type="car9" route="route1_4_3" depart="48" departLane = "0" departSpeed="11.180000"/>
	<vehicle id="LX_170" type="car9" route="route0_1_2" depart="49" departLane = "2" departSpeed="11.180000"/>
	<vehicle id="LX_171" type="car6" route="route0_4_1" depart="49" departLane = "2" departSpeed="11.180000"/>
	<vehicle id="LX_172" type="car9" route="route1_3_4" depart="49" departLane = "2" departSpeed="11.180000"/>
	<vehicle id="SX_173" type="car8" route="route1_4_2" depart="49" departLane = "1" departSpeed="11.180000"/>
	<vehicle id="LX_174" type="car9" route="route0_1_2" depart="50" departLane = "2" departSpeed="11.180000"/>
	<vehicle id="SX_175" type="car6" route="route0_2_4" depart="50" departLane = "1" departSpeed="11.180000"/>
	<vehicle id="RS_176" type="car8" route="route0_4_3" depart="50" departLane = "0" departSpeed="11.180000"/>
	<vehicle id="RX_177" type="car6" route="route1_3_2" depart="50" departLane = "0" departSpeed="11.180000"/>
	<vehicle id="RX_178" type="car9" route="route1_4_3" depart="50" departLane = "0" departSpeed="11.180000"/>
	<vehicle id="LR_179" type="car7" route="route0_2_3" depart="51" departLane = "2" departSpeed="11.180000"/>
	<vehicle id="RS_180" type="car5" route="route1_2_1" depart="51" departLane = "0" departSpeed="11.180000"/>
	<vehicle id="SS_181" type="car9" route="route1_3_1" depart="51" departLane = "1" departSpeed="11.180000"/>
	<vehicle id="SX_182" type="car9" route="route1_4_2" depart="51" departLane = "1" departSpeed="11.180000"/>
	<vehicle id="SX_183" type="car6" route="route0_2_4" depart="52" departLane = "1" departSpeed="11.180000"/>
	<vehicle id="LX_184" type="car8" route="route0_4_1" depart="52" departLane = "2" departSpeed="11.180000"/>
	<vehicle id="RX_185" type="car5" route="route1_4_3" depart="52" departLane = "0" departSpeed="11.180000"/>
	<vehicle id="SS_186" type="car8" route="route0_1_3" depart="53" departLane = "1" departSpeed="11.180000"/>
	<vehicle id="SX_187" type="car7" route="route0_2_4" depart="53" departLane = "1" departSpeed="11.180000"/>
	<vehicle id="LX_188" type="car9" route="route1_3_4" depart="53" departLane = "2" departSpeed="11.180000"/>
	<vehicle id="SX_189" type="car9" route="route1_4_2" depart="53" departLane = "1" departSpeed="11.180000"/>
	<vehicle id="LL_190" type="car5" route="route0_2_3" depart="54" departLane = "2" departSpeed="11.180000"/>
	<vehicle id="LX_191" type="car6" route="route0_4_1" depart="54" departLane = "2" departSpeed="11.180000"/>
	<vehicle id="LX_192" type="car9" route="route1_2_3" depart="54" departLane = "2" departSpeed="11.180000"/>
	<vehicle id="LX_193" type="car5" route="route1_3_4" depart="54" departLane = "2" departSpeed="11.180000"/>
	<vehicle id="LL_194" type="car9" route="route1_4_1" depart="54" departLane = "2" departSpeed="11.180000"/>
	<vehicle id="SL_195" type="car5" route="route0_1_3" depart="55" departLane = "1" departSpeed="11.180000"/>
	<vehicle id="RS_196" type="car5" route="route1_2_1" depart="55" departLane = "0" departSpeed="11.180000"/>
	<vehicle id="LS_197" type="car6" route="route1_4_1" depart="55" departLane = "2" departSpeed="11.180000"/>
	<vehicle id="LX_198" type="car5" route="route0_4_1" depart="56" departLane = "2" departSpeed="11.180000"/>
	<vehicle id="RR_199" type="car9" route="route1_2_1" depart="56" departLane = "0" departSpeed="11.180000"/>
	<vehicle id="LX_200" type="car8" route="route1_3_4" depart="56" departLane = "2" departSpeed="11.180000"/>
	<vehicle id="LR_201" type="car5" route="route1_4_1" depart="56" departLane = "2" departSpeed="11.180000"/>
	<vehicle id="SL_202" type="car5" route="route0_1_3" depart="57" departLane = "1" departSpeed="11.180000"/>
	<vehicle id="RX_203" type="car8" route="route0_2_1" depart="57" departLane = "0" departSpeed="11.180000"/>
	<vehicle id="RX_204" type="car6" route="route1_3_2" depart="57" departLane = "0" departSpeed="11.180000"/>
	<vehicle id="RX_205" type="car6" route="route1_4_3" depart="57" departLane = "0" departSpeed="11.180000"/>
	<vehicle id="SL_206" type="car5" route="route0_1_3" depart="58" departLane = "1" departSpeed="11.180000"/>
	<vehicle id="RR_207" type="car9" route="route1_2_1" depart="58" departLane = "0" departSpeed="11.180000"/>
	<vehicle id="RX_208" type="car8" route="route1_3_2" depart="58" departLane = "0" departSpeed="11.180000"/>
	<vehicle id="RX_209" type="car6" route="route0_1_4" depart="59" departLane = "0" departSpeed="11.180000"/>
	<vehicle id="RX_210" type="car6" route="route0_2_1" depart="59" departLane = "0" departSpeed="11.180000"/>
	<vehicle id="LS_211" type="car9" route="route1_4_1" depart="59" departLane = "2" departSpeed="11.180000"/>
	<vehicle id="RR_212" type="car8" route="route0_4_3" depart="60" departLane = "0" departSpeed="11.180000"/>
	<vehicle id="SX_213" type="car9" route="route1_2_4" depart="60" departLane = "1" departSpeed="11.180000"/>
	<vehicle id="SR_214" type="car7" route="route0_1_3" depart="61" departLane = "1" departSpeed="11.180000"/>
	<vehicle id="SX_215" type="car7" route="route1_2_4" depart="61" departLane = "1" departSpeed="11.180000"/>
	<vehicle id="LX_216" type="car9" route="route1_3_4" depart="61" departLane = "2" departSpeed="11.180000"/>
	<vehicle id="LS_217" type="car5" route="route1_4_1" depart="61" departLane = "2" departSpeed="11.180000"/>
	<vehicle id="LX_218" type="car7" route="route0_1_2" depart="62" departLane = "2" departSpeed="11.180000"/>
	<vehicle id="RX_219" type="car5" route="route0_2_1" depart="62" departLane = "0" departSpeed="11.180000"/>
	<vehicle id="LX_220" type="car9" route="route0_4_1" depart="62" departLane = "2" departSpeed="11.180000"/>
	<vehicle id="RS_221" type="car7" route="route1_2_1" depart="62" departLane = "0" departSpeed="11.180000"/>
	<vehicle id="RX_222" type="car9" route="route0_1_4" depart="63" departLane = "0" departSpeed="11.180000"/>
	<vehicle id="SX_223" type="car7" route="route0_2_4" depart="63" departLane = "1" departSpeed="11.180000"/>
	<vehicle id="SX_224" type="car8" route="route0_4_2" depart="63" departLane = "1" departSpeed="11.180000"/>
	<vehicle id="LX_225" type="car5" route="route1_2_3" depart="63" departLane = "2" departSpeed="11.180000"/>
	<vehicle id="LX_226" type="car6" route="route1_3_4" depart="63" departLane = "2" departSpeed="11.180000"/>
	<vehicle id="SS_227" type="car6" route="route0_1_3" depart="64" departLane = "1" departSpeed="11.180000"/>
	<vehicle id="SX_228" type="car6" route="route1_2_4" depart="64" departLane = "1" departSpeed="11.180000"/>
	<vehicle id="RX_229" type="car9" route="route1_4_3" depart="64" departLane = "0" departSpeed="11.180000"/>
	<vehicle id="LX_230" type="car8" route="route0_4_1" depart="65" departLane = "2" departSpeed="11.180000"/>
	<vehicle id="SL_231" type="car8" route="route1_3_1" depart="65" departLane = "1" departSpeed="11.180000"/>
	<vehicle id="LL_232" type="car7" route="route1_4_1" depart="65" departLane = "2" departSpeed="11.180000"/>
	<vehicle id="LX_233" type="car6" route="route0_1_2" depart="66" departLane = "2" departSpeed="11.180000"/>
	<vehicle id="SX_234" type="car5" route="route0_2_4" depart="66" departLane = "1" departSpeed="11.180000"/>
	<vehicle id="RR_235" type="car8" route="route1_2_1" depart="66" departLane = "0" departSpeed="11.180000"/>
	<vehicle id="SR_236" type="car6" route="route1_3_1" depart="66" departLane = "1" departSpeed="11.180000"/>
	<vehicle id="SX_237" type="car6" route="route1_4_2" depart="66" departLane = "1" departSpeed="11.180000"/>
	<vehicle id="RX_238" type="car5" route="route0_1_4" depart="67" departLane = "0" departSpeed="11.180000"/>
	<vehicle id="SX_239" type="car5" route="route0_4_2" depart="67" departLane = "1" departSpeed="11.180000"/>
	<vehicle id="SX_240" type="car6" route="route1_2_4" depart="67" departLane = "1" departSpeed="11.180000"/>
	<vehicle id="RX_241" type="car6" route="route1_3_2" depart="67" departLane = "0" departSpeed="11.180000"/>
	<vehicle id="LL_242" type="car8" route="route1_4_1" depart="67" departLane = "2" departSpeed="11.180000"/>
	<vehicle id="LX_243" type="car5" route="route0_1_2" depart="68" departLane = "2" departSpeed="11.180000"/>
	<vehicle id="SX_244" type="car7" route="route1_2_4" depart="68" departLane = "1" departSpeed="11.180000"/>
	<vehicle id="LR_245" type="car8" route="route1_4_1" depart="68" departLane = "2" departSpeed="11.180000"/>
	<vehicle id="SS_246" type="car8" route="route0_1_3" depart="69" departLane = "1" departSpeed="11.180000"/>
	<vehicle id="LR_247" type="car7" route="route0_2_3" depart="69" departLane = "2" departSpeed="11.180000"/>
	<vehicle id="LX_248" type="car5" route="route0_4_1" depart="69" departLane = "2" departSpeed="11.180000"/>
	<vehicle id="SX_249" type="car6" route="route1_2_4" depart="69" departLane = "1" departSpeed="11.180000"/>
	<vehicle id="RX_250" type="car8" route="route1_4_3" depart="69" departLane = "0" departSpeed="11.180000"/>
	<vehicle id="SR_251" type="car5" route="route0_1_3" depart="70" departLane = "1" departSpeed="11.180000"/>
	<vehicle id="SX_252" type="car9" route="route0_2_4" depart="70" departLane = "1" departSpeed="11.180000"/>
	<vehicle id="SX_253" type="car7" route="route0_4_2" depart="70" departLane = "1" departSpeed="11.180000"/>
	<vehicle id="LX_254" type="car7" route="route1_2_3" depart="70" departLane = "2" departSpeed="11.180000"/>
	<vehicle id="LX_255" type="car5" route="route1_3_4" depart="70" departLane = "2" departSpeed="11.180000"/>
	<vehicle id="RX_256" type="car7" route="route1_4_3" depart="70" departLane = "0" departSpeed="11.180000"/>
	<vehicle id="LS_257" type="car6" route="route0_2_3" depart="71" departLane = "2" departSpeed="11.180000"/>
	<vehicle id="LX_258" type="car9" route="route0_4_1" depart="71" departLane = "2" departSpeed="11.180000"/>
	<vehicle id="LX_259" type="car9" route="route1_2_3" depart="71" departLane = "2" departSpeed="11.180000"/>
	<vehicle id="RX_260" type="car9" route="route1_3_2" depart="71" departLane = "0" departSpeed="11.180000"/>