<routes>

	<vType id="car5" accel="100.0" decel="100.0" sigma="0.0" length="5" minGap="3.000000" maxSpeed="11.180000" tau="0.100000" carFollowModel="CACC" color="255,255,255"/>
	<vType id="car6" accel="100.0" decel="100.0" sigma="0.0" length="6" minGap="3.000000" maxSpeed="11.180000" tau="0.100000" carFollowModel="CACC" color="255,255,255"/>
	<vType id="car7" accel="100.0" decel="100.0" sigma="0.0" length="7" minGap="3.000000" maxSpeed="11.180000" tau="0.100000" carFollowModel="CACC" color="255,255,255"/>
	<vType id="car8" accel="100.0" decel="100.0" sigma="0.0" length="8" minGap="3.000000" maxSpeed="11.180000" tau="0.100000" carFollowModel="CACC" color="255,255,255"/>
	<vType id="car9" accel="100.0" decel="100.0" sigma="0.0" length="9" minGap="3.000000" maxSpeed="11.180000" tau="0.100000" carFollowModel="CACC" color="255,255,255"/>

	<route id="route0_1_2" edges=" 001_001_1"/>
	<route id="route0_1_3" edges=" 001_001_1"/>
	<route id="route0_1_4" edges=" 001_001_1"/>
	<route id="route0_2_1" edges=" 001_001_2"/>
	<route id="route0_2_3" edges=" 001_001_2"/>
	<route id="route0_2_4" edges=" 001_001_2"/>
	<route id="route0_3_1" edges=" 001_001_3"/>
	<route id="route0_3_2" edges=" 001_001_3"/>
	<route id="route0_3_4" edges=" 001_001_3"/>
	<route id="route0_4_1" edges=" 001_001_4"/>
	<route id="route0_4_2" edges=" 001_001_4"/>
	<route id="route0_4_3" edges=" 001_001_4"/>
	<route id="route1_1_2" edges=" 002_001_1"/>
	<route id="route1_1_3" edges=" 002_001_1"/>
	<route id="route1_1_4" edges=" 002_001_1"/>
	<route id="route1_2_1" edges=" 002_001_2"/>
	<route id="route1_2_3" edges=" 002_001_2"/>
	<route id="route1_2_4" edges=" 002_001_2"/>
	<route id="route1_3_1" edges=" 002_001_3"/>
	<route id="route1_3_2" edges=" 002_001_3"/>
	<route id="route1_3_4" edges=" 002_001_3"/>
	<route id="route1_4_1" edges=" 002_001_4"/>
	<route id="route1_4_2" edges=" 002_001_4"/>
	<route id="route1_4_3" edges=" 002_001_4"/>

	<vehicle id="SS_0" type="car8" route="route0_1_3" depart="0" departLane = "1" departSpeed="11.180000"/>
	<vehicle id="RX_1" type="car6" route="route0_2_1" depart="0" departLane = "0" departSpeed="11.180000"/>
	<vehicle id="LX_2" type="car7" route="route1_3_4" depart="0" departLane = "2" departSpeed="11.180000"/>
	<vehicle id="RX_3" type="car7" route="route1_4_3" depart="0" departLane = "0" departSpeed="11.180000"/>
	<vehicle id="RX_4" type="car5" route="route0_1_4" depart="1" departLane = "0" departSpeed="11.180000"/>
	<vehicle id="SX_5" type="car6" route="route0_2_4" depart="1" departLane = "1" departSpeed="11.180000"/>
	<vehicle id="RX_6" type="car6" route="route1_3_2" depart="1" departLane = "0" departSpeed="11.180000"/>
	<vehicle id="LL_7" type="car7" route="route1_4_1" depart="1" departLane = "2" departSpeed="11.180000"/>
	<vehicle id="SR_8" type="car6" route="route0_1_3" depart="2" departLane = "1" departSpeed="11.180000"/>
	<vehicle id="RX_9" type="car7" route="route1_3_2" depart="2" departLane = "0" departSpeed="11.180000"/>
	<vehicle id="LL_10" type="car7" route="route1_4_1" depart="2" departLane = "2" departSpeed="11.180000"/>
	<vehicle id="LR_11" type="car8" route="route0_2_3" depart="3" departLane = "2" departSpeed="11.180000"/>
	<vehicle id="RL_12" type="car9" route="route0_4_3" depart="3" departLane = "0" departSpeed="11.180000"/>
	<vehicle id="SX_13" type="car7" route="route1_2_4" depart="3" departLane = "1" departSpeed="11.180000"/>
	<vehicle id="RX_14" type="car7" route="route1_4_3" depart="3" departLane = "0" departSpeed="11.180000"/>
	<vehicle id="SR_15" type="car7" route="route0_1_3" depart="4" departLane = "1" departSpeed="11.180000"/>
	<vehicle id="RX_16" type="car9" route="route0_2_1" depart="4" departLane = "0" departSpeed="11.180000"/>
	<vehicle id="LX_17" type="car6" route="route0_4_1" depart="4" departLane = "2" departSpeed="11.180000"/>
	<vehicle id="RS_18" type="car8" route="route1_2_1" depart="4" departLane = "0" departSpeed="11.180000"/>
	<vehicle id="SL_19" type="car9" route="route1_3_1" depart="4" departLane = "1" departSpeed="11.180000"/>
	<vehicle id="RX_20" type="car5" route="route1_4_3" depart="4" departLane = "0" departSpeed="11.180000"/>
	<vehicle id="LL_21" type="car7" route="route0_2_3" depart="5" departLane = "2" departSpeed="11.180000"/>
	<vehicle id="LX_22" type="car7" route="route0_4_1" depart="5" departLane = "2" departSpeed="11.180000"/>
	<vehicle id="RX_23" type="car8" route="route0_1_4" depart="6" departLane = "0" departSpeed="11.180000"/>
	<vehicle id="SX_24" type="car6" route="route0_2_4" depart="6" departLane = "1" departSpeed="11.180000"/>
	<vehicle id="LX_25" type="car6" route="route0_4_1" depart="6" departLane = "2" departSpeed="11.180000"/>
	<vehicle id="RX_26" type="car6" route="route1_3_2" depart="6" departLane = "0" departSpeed="11.180000"/>
	<vehicle id="SX_27" type="car9" route="route0_2_4" depart="7" departLane = "1" departSpeed="11.180000"/>
	<vehicle id="SS_28" type="car6" route="route1_3_1" depart="7" departLane = "1" departSpeed="11.180000"/>
	<vehicle id="LR_29" type="car8" route="route0_2_3" depart="8" departLane = "2" departSpeed="11.180000"/>
	<vehicle id="SX_30" type="car8" route="route1_2_4" depart="8" departLane = "1" departSpeed="11.180000"/>
	<vehicle id="LX_31" type="car8" route="route1_3_4" depart="8" departLane = "2" departSpeed="11.180000"/>
	<vehicle id="LX_32" type="car7" route="route0_1_2" depart="9" departLane = "2" departSpeed="11.180000"/>
	<vehicle id="LR_33" type="car9" route="route0_2_3" depart="9" departLane = "2" departSpeed="11.180000"/>
	<vehicle id="LX_34" type="car6" route="route0_4_1" depart="9" departLane = "2" departSpeed="11.180000"/>
	<vehicle id="LX_35" type="car9" route="route1_2_3" depart="9" departLane = "2" departSpeed="11.180000"/>
	<vehicle id="LX_36" type="car6" route="route0_1_2" depart="10" departLane = "2" departSpeed="11.180000"/>
	<vehicle id="SR_37" type="car9" route="route1_3_1" depart="10" departLane = "1" departSpeed="11.180000"/>
	<vehicle id="LR_38" type="car8" route="route1_4_1" depart="10" departLane = "2" departSpeed="11.180000"/>
	<vehicle id="RX_39" type="car5" route="route0_1_4" depart="11" departLane = "0" departSpeed="11.180000"/>
	<vehicle id="LX_40" type="car8" route="route1_2_3" depart="11" departLane = "2" departSpeed="11.180000"/>
	<vehicle id="RX_41" type="car9" route="route1_3_2" depart="11" departLane = "0" departSpeed="11.180000"/>
	<vehicle id="RX_42" type="car8" route="route1_4_3" depart="11" departLane = "0" departSpeed="11.180000"/>
	<vehicle id="SX_43" type="car6" route="route1_2_4" depart="12" departLane = "1" departSpeed="11.180000"/>
	<vehicle id="LX_44" type="car5" route="route0_1_2" depart="13" departLane = "2" departSpeed="11.180000"/>
	<vehicle id="SX_45" type="car7" route="route0_4_2" depart="13" departLane = "1" departSpeed="11.180000"/>
	<vehicle id="RX_46" type="car6" route="route0_1_4" depart="14" departLane = "0" departSpeed="11.180000"/>
	<vehicle id="SX_47" type="car5" route="route0_2_4" depart="14" departLane = "1" departSpeed="11.180000"/>
	<vehicle id="RS_48" type="car9" route="route0_4_3" depart="14" departLane = "0" departSpeed="11.180000"/>
	<vehicle id="RX_49" type="car7" route="route1_4_3" depart="14" departLane = "0" departSpeed="11.180000"/>
	<vehicle id="SL_50" type="car7" route="route0_1_3" depart="15" departLane = "1" departSpeed="11.180000"/>
	<vehicle id="RX_51" type="car7" route="route0_2_1" depart="15" departLane = "0" departSpeed="11.180000"/>
	<vehicle id="RS_52" type="car7" route="route0_4_3" depart="15" departLane = "0" departSpeed="11.180000"/>
	<vehicle id="LR_53" type="car8" route="route1_4_1" depart="15" departLane = "2" departSpeed="11.180000"/>
	<vehicle id="SX_54" type="car9" route="route0_2_4" depart="16" departLane = "1" departSpeed="11.180000"/>
	<vehicle id="SX_55" type="car8" route="route1_2_4" depart="16" departLane = "1" departSpeed="11.180000"/>
	<vehicle id="LS_56" type="car7" route="route1_4_1" depart="16" departLane = "2" departSpeed="11.180000"/>
	<vehicle id="LX_57" type="car5" route="route0_1_2" depart="17" departLane = "2" departSpeed="11.180000"/>
	<vehicle id="LR_58" type="car6" route="route0_2_3" depart="17" departLane = "2" departSpeed="11.180000"/>
	<vehicle id="SX_59" type="car8" route="route0_4_2" depart="17" departLane = "1" departSpeed="11.180000"/>
	<vehicle id="RR_60" type="car7" route="route1_2_1" depart="17" departLane = "0" departSpeed="11.180000"/>
	<vehicle id="SX_61" type="car9" route="route1_4_2" depart="17" departLane = "1" departSpeed="11.180000"/>
	<vehicle id="LR_62" type="car5" route="route0_2_3" depart="18" departLane = "2" departSpeed="11.180000"/>
	<vehicle id="SX_63" type="car5" route="route0_4_2" depart="18" departLane = "1" departSpeed="11.180000"/>
	<vehicle id="SL_64" type="car5" route="route0_1_3" depart="19" departLane = "1" departSpeed="11.180000"/>
	<vehicle id="LS_65" type="car9" route="route0_2_3" depart="19" departLane = "2" departSpeed="11.180000"/>
	<vehicle id="SX_66" type="car9" route="route1_2_4" depart="19" departLane = "1" departSpeed="11.180000"/>
	<vehicle id="LL_67" type="car5" route="route0_2_3" depart="20" departLane = "2" departSpeed="11.180000"/>
	<vehicle id="LX_68" type="car6" route="route0_4_1" depart="20" departLane = "2" departSpeed="11.180000"/>
	<vehicle id="SR_69" type="car5" route="route1_3_1" depart="20" departLane = "1" departSpeed="11.180000"/>
	<vehicle id="RX_70" type="car7" route="route1_4_3" depart="20" departLane = "0" departSpeed="11.180000"/>
	<vehicle id="RX_71" type="car7" route="route0_2_1" depart="21" departLane = "0" departSpeed="11.180000"/>
	<vehicle id="LX_72" type="car9" route="route0_4_1" depart="21" departLane = "2" departSpeed="11.180000"/>
	<vehicle id="SX_73" type="car7" route="route1_2_4" depart="21" departLane = "1" departSpeed="11.180000"/>
	<vehicle id="SS_74" type="car6" route="route1_3_1" depart="21" departLane = "1" departSpeed="11.180000"/>
	<vehicle id="SX_75" type="car8" route="route1_4_2" depart="21" departLane = "1" departSpeed="11.180000"/>
	<vehicle id="SS_76" type="car9" route="route0_1_3" depart="22" departLane = "1" departSpeed="11.180000"/>
	<vehicle id="RX_77" type="car9" route="route0_2_1" depart="22" departLane = "0" departSpeed="11.180000"/>
	<vehicle id="SX_78" type="car8" route="route0_4_2" depart="22" departLane = "1" departSpeed="11.180000"/>
	<vehicle id="SX_79" type="car8" route="route1_2_4" depart="22" departLane = "1" departSpeed="11.180000"/>
	<vehicle id="SL_80" type="car9" route="route0_1_3" depart="23" departLane = "1" departSpeed="11.180000"/>
	<vehicle id="RS_81" type="car9" route="route1_2_1" depart="23" departLane = "0" departSpeed="11.180000"/>
	<vehicle id="LX_82" type="car7" route="route1_3_4" depart="23" departLane = "2" departSpeed="11.180000"/>
	<vehicle id="RX_83" type="car9" route="route0_2_1" depart="24" departLane = "0" departSpeed="11.180000"/>
	<vehicle id="LX_84" type="car6" route="route0_4_1" depart="24" departLane = "2" departSpeed="11.180000"/>
	<vehicle id="LX_85" type="car7" route="route1_2_3" depart="24" departLane = "2" departSpeed="11.180000"/>
	<vehicle id="RX_86" type="car8" route="route1_4_3" depart="24" departLane = "0" departSpeed="11.180000"/>
	<vehicle id="SS_87" type="car9" route="route0_1_3" depart="25" departLane = "1" departSpeed="11.180000"/>
	<vehicle id="LX_88" type="car9" route="route0_4_1" depart="25" departLane = "2" departSpeed="11.180000"/>
	<vehicle id="RX_89" type="car8" route="route1_3_2" depart="25" departLane = "0" departSpeed="11.180000"/>
	<vehicle id="LS_90" type="car6" route="route1_4_1" depart="25" departLane = "2" departSpeed="11.180000"/>
	<vehicle id="RX_91" type="car7" route="route0_2_1" depart="26" departLane = "0" departSpeed="11.180000"/>
	<vehicle id="LX_92" type="car6" route="route0_4_1" depart="26" departLane = "2" departSpeed="11.180000"/>
	<vehicle id="SX_93" type="car7" route="route1_2_4" depart="26" departLane = "1" departSpeed="11.180000"/>
	<vehicle id="SS_94" type="car7" route="route0_1_3" depart="27" departLane = "1" departSpeed="11.180000"/>
	<vehicle id="RS_95" type="car5" route="route0_4_3" depart="27" departLane = "0" departSpeed="11.180000"/>
	<vehicle id="SX_96" type="car5" route="route0_2_4" depart="28" departLane = "1" departSpeed="11.180000"/>
	<vehicle id="SX_97" type="car7" route="route0_4_2" depart="28" departLane = "1" departSpeed="11.180000"/>
	<vehicle id="LX_98" type="car6" route="route1_2_3" depart="28" departLane = "2" departSpeed="11.180000"/>
	<vehicle id="LX_99" type="car5" route="route1_3_4" depart="28" departLane = "2" departSpeed="11.180000"/>
	<vehicle id="RX_100" type="car7" route="route0_1_4" depart="29" departLane = "0" departSpeed="11.180000"/>
	<vehicle id="SX_101" type="car7" route="route0_2_4" depart="29" departLane = "1" departSpeed="11.180000"/>
	<vehicle id="LX_102" type="car7" route="route0_4_1" depart="29" departLane = "2" departSpeed="11.180000"/>
	<vehicle id="SX_103" type="car6" route="route1_2_4" depart="29" departLane = "1" departSpeed="11.180000"/>
	<vehicle id="RX_104" type="car6" route="route0_1_4" depart="30" departLane = "0" departSpeed="11.180000"/>
	<vehicle id="SX_105" type="car5" route="route0_2_4" depart="30" departLane = "1" departSpeed="11.180000"/>
	<vehicle id="RL_106" type="car7" route="route0_4_3" depart="30" departLane = "0" departSpeed="11.180000"/>
	<vehicle id="LX_107" type="car6" route="route1_3_4" depart="30" departLane = "2" departSpeed="11.180000"/>
	<vehicle id="RX_108" type="car9" route="route1_4_3" depart="30" departLane = "0" departSpeed="11.180000"/>
	<vehicle id="RX_109" type="car9" route="route0_1_4" depart="31" departLane = "0" departSpeed="11.180000"/>
	<vehicle id="RX_110" type="car9" route="route0_2_1" depart="31" departLane = "0" departSpeed="11.180000"/>
	<vehicle id="SX_111" type="car7" route="route1_2_4" depart="31" departLane = "1" departSpeed="11.180000"/>
	<vehicle id="SL_112" type="car7" route="route1_3_1" depart="31" departLane = "1" departSpeed="11.180000"/>
	<vehicle id="SX_113" type="car8" route="route1_4_2" depart="31" departLane = "1" departSpeed="11.180000"/>
	<vehicle id="RX_114" type="car8" route="route0_1_4" depart="32" departLane = "0" departSpeed="11.180000"/>
	<vehicle id="RX_115" type="car9" route="route0_2_1" depart="32" departLane = "0" departSpeed="11.180000"/>
	<vehicle id="RS_116" type="car6" route="route1_2_1" depart="32" departLane = "0" departSpeed="11.180000"/>
	<vehicle id="RX_117" type="car6" route="route0_1_4" depart="33" departLane = "0" departSpeed="11.180000"/>
	<vehicle id="SX_118" type="car6" route="route0_2_4" depart="33" departLane = "1" departSpeed="11.180000"/>
	<vehicle id="LX_119" type="car7" route="route0_4_1" depart="33" departLane = "2" departSpeed="11.180000"/>
	<vehicle id="LX_120" type="car8" route="route1_2_3" depart="33" departLane = "2" departSpeed="11.180000"/>
	<vehicle id="RX_121" type="car7" route="route1_4_3" depart="33" departLane = "0" departSpeed="11.180000"/>
	<vehicle id="RX_122" type="car6" route="route0_2_1" depart="34" departLane = "0" departSpeed="11.180000"/>
	<vehicle id="SX_123" type="car5" route="route0_4_2" depart="34" departLane = "1" departSpeed="11.180000"/>
	<vehicle id="LS_124" type="car8" route="route1_4_1" depart="34" departLane = "2" departSpeed="11.180000"/>
	<vehicle id="RX_125" type="car9" route="route0_1_4" depart="35" departLane = "0" departSpeed="11.180000"/>
	<vehicle id="RX_126" type="car7" route="route0_2_1" depart="35" departLane = "0" departSpeed="11.180000"/>
	<vehicle id="RR_127" type="car8" route="route0_4_3" depart="35" departLane = "0" departSpeed="11.180000"/>
	<vehicle id="RX_128" type="car9" route="route0_1_4" depart="36" departLane = "0" departSpeed="11.180000"/>
	<vehicle id="RX_129" type="car9" route="route1_3_2" depart="36" departLane = "0" departSpeed="11.180000"/>
	<vehicle id="RX_130" type="car8" route="route1_4_3" depart="36" departLane = "0" departSpeed="11.180000"/>
	<vehicle id="RX_131" type="car9" route="route0_2_1" depart="37" departLane = "0" departSpeed="11.180000"/>
	<vehicle id="SX_132" type="car5" route="route1_4_2" depart="37" departLane = "1" departSpeed="11.180000"/>
	<vehicle id="SX_133" type="car8" route="route0_2_4" depart="38" departLane = "1" departSpeed="11.180000"/>
	<vehicle id="SX_134" type="car7" route="route0_4_2" depart="38" departLane = "1" departSpeed="11.180000"/>
	<vehicle id="RL_135" type="car7" route="route1_2_1" depart="38" departLane = "0" departSpeed="11.180000"/>
	<vehicle id="RX_136" type="car7" route="route1_3_2" depart="38" departLane = "0" departSpeed="11.180000"/>
	<vehicle id="RX_137" type="car9" route="route1_4_3" depart="38" departLane = "0" departSpeed="11.180000"/>
	<vehicle id="RX_138" type="car5" route="route0_2_1" depart="39" departLane = "0" departSpeed="11.180000"/>
	<vehicle id="RS_139" type="car6" route="route0_4_3" depart="39" departLane = "0" departSpeed="11.180000"/>
	<vehicle id="SX_140" type="car6" route="route1_2_4" depart="39" departLane = "1" departSpeed="11.180000"/>
	<vehicle id="LX_141" type="car8" route="route1_3_4" depart="39" departLane = "2" departSpeed="11.180000"/>
	<vehicle id="RX_142" type="car7" route="route1_4_3" depart="39" departLane = "0" departSpeed="11.180000"/>
	<vehicle id="SX_143" type="car7" route="route1_2_4" depart="40" departLane = "1" departSpeed="11.180000"/>
	<vehicle id="LX_144" type="car8" route="route1_3_4" depart="40" departLane = "2" departSpeed="11.180000"/>
	<vehicle id="SX_145" type="car5" route="route1_4_2" depart="40" departLane = "1" departSpeed="11.180000"/>
	<vehicle id="RX_146" type="car7" route="route0_1_4" depart="41" departLane = "0" departSpeed="11.180000"/>
	<vehicle id="SX_147" type="car9" route="route0_2_4" depart="41" departLane = "1" departSpeed="11.180000"/>
	<vehicle id="SX_148" type="car5" route="route0_4_2" depart="41" departLane = "1" departSpeed="11.180000"/>
	<vehicle id="LX_149" type="car9" route="route0_1_2" depart="42" departLane = "2" departSpeed="11.180000"/>
	<vehicle id="SX_150" type="car5" route="route0_2_4" depart="42" departLane = "1" departSpeed="11.180000"/>
	<vehicle id="RL_151" type="car6" route="route0_4_3" depart="42" departLane = "0" departSpeed="11.180000"/>
	<vehicle id="SX_152" type="car6" route="route1_4_2" depart="42" departLane = "1" departSpeed="11.180000"/>
	<vehicle id="LX_153" type="car7" route="route1_2_3" depart="43" departLane = "2" departSpeed="11.180000"/>
	<vehicle id="LX_154" type="car9" route="route1_3_4" depart="43" departLane = "2" departSpeed="11.180000"/>
	<vehicle id="SR_155" type="car5" route="route0_1_3" depart="44" departLane = "1" departSpeed="11.180000"/>
	<vehicle id="LL_156" type="car6" route="route0_2_3" depart="44" departLane = "2" departSpeed="11.180000"/>
	<vehicle id="SX_157" type="car7" route="route0_4_2" depart="44" departLane = "1" departSpeed="11.180000"/>
	<vehicle id="RX_158" type="car8" route="route1_4_3" depart="44" departLane = "0" departSpeed="11.180000"/>
	<vehicle id="LX_159" type="car9" route="route0_1_2" depart="45" departLane = "2" departSpeed="11.180000"/>
	<vehicle id="RX_160" type="car6" route="route0_2_1" depart="45" departLane = "0" departSpeed="11.180000"/>
	<vehicle id="RS_161" type="car7" route="route0_4_3" depart="45" departLane = "0" departSpeed="11.180000"/>
	<vehicle id="RX_162" type="car7" route="route1_3_2" depart="45" departLane = "0" departSpeed="11.180000"/>
	<vehicle id="RX_163" type="car5" route="route0_1_4" depart="46" departLane = "0" departSpeed="11.180000"/>
	<vehicle id="LS_164" type="car7" route="route0_2_3" depart="46" departLane = "2" departSpeed="11.180000"/>
	<vehicle id="RS_165" type="car7" route="route0_4_3" depart="46" departLane = "0" departSpeed="11.180000"/>
	<vehicle id="RL_166" type="car9" route="route1_2_1" depart="46" departLane = "0" departSpeed="11.180000"/>
	<vehicle id="LX_167" type="car7" route="route1_3_4" depart="46" departLane = "2" departSpeed="11.180000"/>
	<vehicle id="SX_168" type="car7" route="route1_4_2" depart="46" departLane = "1" departSpeed="11.180000"/>
	<vehicle id="LR_169" type="car9" route="route0_2_3" depart="47" departLane = "2" departSpeed="11.180000"/>
	<vehicle id="RX_170" type="car9" route="route1_4_3" depart="47" departLane = "0" departSpeed="11.180000"/>
	<vehicle id="LX_171" type="car9" route="route0_1_2" depart="48" departLane = "2" departSpeed="11.180000"/>
	<vehicle id="LS_172" type="car9" route="route0_2_3" depart="48" departLane = "2" departSpeed="11.180000"/>
	<vehicle id="RX_173" type="car5" route="route0_1_4" depart="49" departLane = "0" departSpeed="11.180000"/>
	<vehicle id="LL_174" type="car5" route="route0_2_3" depart="49" departLane = "2" departSpeed="11.180000"/>
	<vehicle id="LX_175" type="car6" route="route0_4_1" depart="49" departLane = "2" departSpeed="11.180000"/>
	<vehicle id="LX_176" type="car5" route="route1_3_4" depart="49" departLane = "2" departSpeed="11.180000"/>
	<vehicle id="SX_177" type="car6" route="route1_4_2" depart="49" departLane = "1" departSpeed="11.180000"/>
	<vehicle id="SL_178" type="car6" route="route0_1_3" depart="50" departLane = "1" departSpeed="11.180000"/>
	<vehicle id="SX_179" type="car9" route="route1_2_4" depart="50" departLane = "1" departSpeed="11.180000"/>
	<vehicle id="SL_180" type="car5" route="route1_3_1" depart="50" departLane = "1" departSpeed="11.180000"/>
	<vehicle id="LL_181" type="car7" route="route1_4_1" depart="50" departLane = "2" departSpeed="11.180000"/>
	<vehicle id="RX_182" type="car9" route="route0_2_1" depart="51" departLane = "0" departSpeed="11.180000"/>
	<vehicle id="RS_183" type="car8" route="route0_4_3" depart="51" departLane = "0" departSpeed="11.180000"/>
	<vehicle id="RX_184" type="car7" route="route1_3_2" depart="51" departLane = "0" departSpeed="11.180000"/>
	<vehicle id="LS_185" type="car7" route="route1_4_1" depart="51" departLane = "2" departSpeed="11.180000"/>
	<vehicle id="LX_186" type="car6" route="route0_4_1" depart="52" departLane = "2" departSpeed="11.180000"/>
	<vehicle id="RS_187" type="car8" route="route1_2_1" depart="52" departLane = "0" departSpeed="11.180000"/>
	<vehicle id="SX_188" type="car7" route="route1_4_2" depart="52" departLane = "1" departSpeed="11.180000"/>
	<vehicle id="RX_189" type="car9" route="route0_1_4" depart="53" departLane = "0" departSpeed="11.180000"/>
	<vehicle id="LX_190" type="car7" route="route0_4_1" depart="53" departLane = "2" departSpeed="11.180000"/>
	<vehicle id="RS_191" type="car6" route="route1_2_1" depart="53" departLane = "0" departSpeed="11.180000"/>
	<vehicle id="LX_192" type="car7" route="route1_3_4" depart="53" departLane = "2" departSpeed="11.180000"/>
	<vehicle id="RX_193" type="car5" route="route0_1_4" depart="54" departLane = "0" departSpeed="11.180000"/>
	<vehicle id="RX_194" type="car9" route="route0_2_1" depart="54" departLane = "0" departSpeed="11.180000"/>
	<vehicle id="RL_195" type="car8" route="route0_4_3" depart="54" departLane = "0" departSpeed="11.180000"/>
	<vehicle id="RR_196" type="car5" route="route1_2_1" depart="54" departLane = "0" departSpeed="11.180000"/>
	<vehicle id="RX_197" type="car7" route="route1_3_2" depart="54" departLane = "0" departSpeed="11.180000"/>
	<vehicle id="SL_198" type="car7" route="route0_1_3" depart="55" departLane = "1" departSpeed="11.180000"/>
	<vehicle id="LX_199" type="car6" route="route0_4_1" depart="55" departLane = "2" departSpeed="11.180000"/>
	<vehicle id="RX_200" type="car6" route="route1_4_3" depart="55" departLane = "0" departSpeed="11.180000"/>
	<vehicle id="RX_201" type="car7" route="route0_2_1" depart="56" departLane = "0" departSpeed="11.180000"/>
	<vehicle id="LX_202" type="car7" route="route1_3_4" depart="56" departLane = "2" departSpeed="11.180000"/>
	<vehicle id="LS_203" type="car8" route="route1_4_1" depart="56" departLane = "2" departSpeed="11.180000"/>
	<vehicle id="SX_204" type="car5" route="route0_4_2" depart="57" departLane = "1" departSpeed="11.180000"/>
	<vehicle id="LX_205" type="car8" route="route1_2_3" depart="57" departLane = "2" departSpeed="11.180000"/>
	<vehicle id="RX_206" type="car9" route="route1_3_2" depart="57" departLane = "0" departSpeed="11.180000"/>
	<vehicle id="SX_207" type="car7" route="route1_4_2" depart="57" departLane = "1" departSpeed="11.180000"/>
	<vehicle id="RX_208" type="car9" route="route0_1_4" depart="58" departLane = "0" departSpeed="11.180000"/>
	<vehicle id="RX_209" type="car5" route="route0_2_1" depart="58" departLane = "0" departSpeed="11.180000"/>
	<vehicle id="LX_210" type="car8" route="route0_4_1" depart="58" departLane = "2" departSpeed="11.180000"/>
	<vehicle id="LX_211" type="car7" route="route1_2_3" depart="58" departLane = "2" departSpeed="11.180000"/>
	<vehicle id="LX_212" type="car8" route="route0_1_2" depart="59" departLane = "2" departSpeed="11.180000"/>
	<vehicle id="SX_213" type="car8" route="route0_4_2" depart="59" departLane = "1" departSpeed="11.180000"/>
	<vehicle id="RS_214" type="car8" route="route1_2_1" depart="59" departLane = "0" departSpeed="11.180000"/>
	<vehicle id="RX_215" type="car9" route="route1_4_3" depart="59" departLane = "0" departSpeed="11.180000"/>
	<vehicle id="SL_216" type="car6" route="route0_1_3" depart="60" departLane = "1" departSpeed="11.180000"/>
	<vehicle id="SR_217" type="car9" route="route1_3_1" depart="60" departLane = "1" departSpeed="11.180000"/>
	<vehicle id="LS_218" type="car8" route="route1_4_1" depart="60" departLane = "2" departSpeed="11.180000"/>
	<vehicle id="SX_219" type="car6" route="route0_4_2" depart="61" departLane = "1" departSpeed="11.180000"/>
	<vehicle id="RX_220" type="car7" route="route1_4_3" depart="61" departLane = "0" departSpeed="11.180000"/>
	<vehicle id="LX_221" type="car5" route="route0_1_2" depart="62" departLane = "2" departSpeed="11.180000"/>
	<vehicle id="RX_222" type="car9" route="route0_2_1" depart="62" departLane = "0" departSpeed="11.180000"/>
	<vehicle id="RL_223" type="car6" route="route0_4_3" depart="62" departLane = "0" departSpeed="11.180000"/>
	<vehicle id="LX_224" type="car6" route="route1_3_4" depart="62" departLane = "2" departSpeed="11.180000"/>
	<vehicle id="SS_225" type="car7" route="route0_1_3" depart="63" departLane = "1" departSpeed="11.180000"/>
	<vehicle id="SX_226" type="car5" route="route0_4_2" depart="63" departLane = "1" departSpeed="11.180000"/>
	<vehicle id="SR_227" type="car6" route="route1_3_1" depart="63" departLane = "1" departSpeed="11.180000"/>
	<vehicle id="LS_228" type="car9" route="route0_2_3" depart="64" departLane = "2" departSpeed="11.180000"/>
	<vehicle id="LX_229" type="car6" route="route1_3_4" depart="64" departLane = "2" departSpeed="11.180000"/>
	<vehicle id="SX_230" type="car8" route="route0_2_4" depart="65" departLane = "1" departSpeed="11.180000"/>
	<vehicle id="SX_231" type="car7" route="route1_2_4" depart="65" departLane = "1" departSpeed="11.180000"/>
	<vehicle id="RX_232" type="car5" route="route1_3_2" depart="65" departLane = "0" departSpeed="11.180000"/>
	<vehicle id="SX_233" type="car9" route="route1_4_2" depart="65" departLane = "1" departSpeed="11.180000"/>
	<vehicle id="RX_234" type="car9" route="route0_2_1" depart="66" departLane = "0" departSpeed="11.180000"/>
	<vehicle id="RL_235" type="car9" route="route0_4_3" depart="66" departLane = "0" departSpeed="11.180000"/>
	<vehicle id="LX_236" type="car5" route="route1_3_4" depart="66" departLane = "2" departSpeed="11.180000"/>
	<vehicle id="RX_237" type="car5" route="route1_4_3" depart="66" departLane = "0" departSpeed="11.180000"/>
	<vehicle id="SL_238" type="car5" route="route0_1_3" depart="67" departLane = "1" departSpeed="11.180000"/>
	<vehicle id="RR_239" type="car8" route="route0_4_3" depart="67" departLane = "0" departSpeed="11.180000"/>
	<vehicle id="LX_240" type="car5" route="route1_2_3" depart="67" departLane = "2" departSpeed="11.180000"/>
	<vehicle id="RX_241" type="car9" route="route1_4_3" depart="67" departLane = "0" departSpeed="11.180000"/>
	<vehicle id="RX_242" type="car8" route="route0_1_4" depart="68" departLane = "0" departSpeed="11.180000"/>
	<vehicle id="LL_243" type="car6" route="route0_2_3" depart="68" departLane = "2" departSpeed="11.180000"/>
	<vehicle id="SX_244" type="car8" route="route1_2_4" depart="68" departLane = "1" departSpeed="11.180000"/>
	<vehicle id="SR_245" type="car6" route="route1_3_1" depart="68" departLane = "1" departSpeed="11.180000"/>
	<vehicle id="SX_246" type="car7" route="route1_4_2" depart="68" departLane = "1" departSpeed="11.180000"/>
	<vehicle id="LX_247" type="car9" route="route0_1_2" depart="69" departLane = "2" departSpeed="11.180000"/>
	<vehicle id="RX_248" type="car7" route="route0_2_1" depart="69" departLane = "0" departSpeed="11.180000"/>
	<vehicle id="LX_249" type="car8" route="route0_4_1" depart="69" departLane = "2" departSpeed="11.180000"/>
	<vehicle id="SX_250" type="car8" route="route1_2_4" depart="69" departLane = "1" departSpeed="11.180000"/>
	<vehicle id="RX_251" type="car9" route="route0_1_4" depart="70" departLane = "0" departSpeed="11.180000"/>
	<vehicle id="SX_252" type="car7" route="route0_2_4" depart="70" departLane = "1" departSpeed="11.180000"/>
	<vehicle id="RL_253" type="car5" route="route1_2_1" depart="70" departLane = "0" departSpeed="11.180000"/>
	<vehicle id="LX_254" type="car9" route="route1_3_4" depart="70" departLane = "2" departSpeed="11.180000"/>
	<vehicle id="LX_255" type="car7" route="route0_1_2" depart="71" departLane = "2" departSpeed="11.180000"/>
	<vehicle id="LS_256" type="car5" route="route0_2_3" depart="71" departLane = "2" departSpeed="11.180000"/>
	<vehicle id="LX_257" type="car9" route="route0_4_1" depart="71" departLane = "2" departSpeed="11.180000"/>
	<vehicle id="RX_258" type="car5" route="route1_3_2" depart="71" departLane = "0" departSpeed="11.180000"/>
	<vehicle id="LS_259" type="car6" route="route1_4_1" depart="71" departLane = "2" departSpeed="11.180000"/>
	<vehicle id="SX_260" type="car5" route="route0_2_4" depart="72" departLane = "1" departSpeed="11.180000"/>