<?xml version="1.0" encoding="UTF-8"?>
<additional>
  <e1Detector id="d1_0" lane="1_0" pos="150" freq="30" file="icacc.out"/>
  <e1Detector id="d1_1" lane="1_1" pos="150" freq="30" file="icacc.out"/>
  <e1Detector id="d1_2" lane="1_2" pos="150" freq="30" file="icacc.out"/>
  <e1Detector id="d2_0" lane="2_0" pos="150" freq="30" file="icacc.out"/>
  <e1Detector id="d2_1" lane="2_1" pos="150" freq="30" file="icacc.out"/>
  <e1Detector id="d2_2" lane="2_2" pos="150" freq="30" file="icacc.out"/>
  <e1Detector id="d3_0" lane="3_0" pos="150" freq="30" file="icacc.out"/>
  <e1Detector id="d3_1" lane="3_1" pos="150" freq="30" file="icacc.out"/>
  <e1Detector id="d3_2" lane="3_2" pos="150" freq="30" file="icacc.out"/>
  <e1Detector id="d4_0" lane="4_0" pos="150" freq="30" file="icacc.out"/>
  <e1Detector id="d4_1" lane="4_1" pos="150" freq="30" file="icacc.out"/>
  <e1Detector id="d4_2" lane="4_2" pos="150" freq="30" file="icacc.out"/>
  
  <e1Detector id="od1_0" lane="1_0" pos="125" freq="30" file="icacc.out"/>
  <e1Detector id="od1_1" lane="1_1" pos="125" freq="30" file="icacc.out"/>
  <e1Detector id="od1_2" lane="1_2" pos="125" freq="30" file="icacc.out"/>
  <e1Detector id="od2_0" lane="2_0" pos="125" freq="30" file="icacc.out"/>
  <e1Detector id="od2_1" lane="2_1" pos="125" freq="30" file="icacc.out"/>
  <e1Detector id="od2_2" lane="2_2" pos="125" freq="30" file="icacc.out"/>
  <e1Detector id="od3_0" lane="3_0" pos="125" freq="30" file="icacc.out"/>
  <e1Detector id="od3_1" lane="3_1" pos="125" freq="30" file="icacc.out"/>
  <e1Detector id="od3_2" lane="3_2" pos="125" freq="30" file="icacc.out"/>
  <e1Detector id="od4_0" lane="4_0" pos="125" freq="30" file="icacc.out"/>
  <e1Detector id="od4_1" lane="4_1" pos="125" freq="30" file="icacc.out"/>
  <e1Detector id="od4_2" lane="4_2" pos="125" freq="30" file="icacc.out"/>
  
  <e1Detector id="ood1_0" lane="1_0" pos="100" freq="30" file="icacc.out"/>
  <e1Detector id="ood1_1" lane="1_1" pos="100" freq="30" file="icacc.out"/>
  <e1Detector id="ood1_2" lane="1_2" pos="100" freq="30" file="icacc.out"/>
  <e1Detector id="ood2_0" lane="2_0" pos="100" freq="30" file="icacc.out"/>
  <e1Detector id="ood2_1" lane="2_1" pos="100" freq="30" file="icacc.out"/>
  <e1Detector id="ood2_2" lane="2_2" pos="100" freq="30" file="icacc.out"/>
  <e1Detector id="ood3_0" lane="3_0" pos="100" freq="30" file="icacc.out"/>
  <e1Detector id="ood3_1" lane="3_1" pos="100" freq="30" file="icacc.out"/>
  <e1Detector id="ood3_2" lane="3_2" pos="100" freq="30" file="icacc.out"/>
  <e1Detector id="ood4_0" lane="4_0" pos="100" freq="30" file="icacc.out"/>
  <e1Detector id="ood4_1" lane="4_1" pos="100" freq="30" file="icacc.out"/>
  <e1Detector id="ood4_2" lane="4_2" pos="100" freq="30" file="icacc.out"/>
  
  <e1Detector id="oood1_0" lane="1_0" pos="75" freq="30" file="icacc.out"/>
  <e1Detector id="oood1_1" lane="1_1" pos="75" freq="30" file="icacc.out"/>
  <e1Detector id="oood1_2" lane="1_2" pos="75" freq="30" file="icacc.out"/>
  <e1Detector id="oood2_0" lane="2_0" pos="75" freq="30" file="icacc.out"/>
  <e1Detector id="oood2_1" lane="2_1" pos="75" freq="30" file="icacc.out"/>
  <e1Detector id="oood2_2" lane="2_2" pos="75" freq="30" file="icacc.out"/>
  <e1Detector id="oood3_0" lane="3_0" pos="75" freq="30" file="icacc.out"/>
  <e1Detector id="oood3_1" lane="3_1" pos="75" freq="30" file="icacc.out"/>
  <e1Detector id="oood3_2" lane="3_2" pos="75" freq="30" file="icacc.out"/>
  <e1Detector id="oood4_0" lane="4_0" pos="75" freq="30" file="icacc.out"/>
  <e1Detector id="oood4_1" lane="4_1" pos="75" freq="30" file="icacc.out"/>
  <e1Detector id="oood4_2" lane="4_2" pos="75" freq="30" file="icacc.out"/>
  
  <e1Detector id="ooood1_0" lane="1_0" pos="1" freq="30" file="icacc.out"/>
  <e1Detector id="ooood1_1" lane="1_1" pos="1" freq="30" file="icacc.out"/>
  <e1Detector id="ooood1_2" lane="1_2" pos="1" freq="30" file="icacc.out"/>
  <e1Detector id="ooood2_0" lane="2_0" pos="1" freq="30" file="icacc.out"/>
  <e1Detector id="ooood2_1" lane="2_1" pos="1" freq="30" file="icacc.out"/>
  <e1Detector id="ooood2_2" lane="2_2" pos="1" freq="30" file="icacc.out"/>
  <e1Detector id="ooood3_0" lane="3_0" pos="1" freq="30" file="icacc.out"/>
  <e1Detector id="ooood3_1" lane="3_1" pos="1" freq="30" file="icacc.out"/>
  <e1Detector id="ooood3_2" lane="3_2" pos="1" freq="30" file="icacc.out"/>
  <e1Detector id="ooood4_0" lane="4_0" pos="1" freq="30" file="icacc.out"/>
  <e1Detector id="ooood4_1" lane="4_1" pos="1" freq="30" file="icacc.out"/>
  <e1Detector id="ooood4_2" lane="4_2" pos="1" freq="30" file="icacc.out"/>
</additional>
