<routes>

	<vType id="car5" accel="100.0" decel="100.0" sigma="0.0" length="5" minGap="3.000000" maxSpeed="11.180000" tau="0.100000" carFollowModel="CACC" color="255,255,255"/>
	<vType id="car6" accel="100.0" decel="100.0" sigma="0.0" length="6" minGap="3.000000" maxSpeed="11.180000" tau="0.100000" carFollowModel="CACC" color="255,255,255"/>
	<vType id="car7" accel="100.0" decel="100.0" sigma="0.0" length="7" minGap="3.000000" maxSpeed="11.180000" tau="0.100000" carFollowModel="CACC" color="255,255,255"/>
	<vType id="car8" accel="100.0" decel="100.0" sigma="0.0" length="8" minGap="3.000000" maxSpeed="11.180000" tau="0.100000" carFollowModel="CACC" color="255,255,255"/>
	<vType id="car9" accel="100.0" decel="100.0" sigma="0.0" length="9" minGap="3.000000" maxSpeed="11.180000" tau="0.100000" carFollowModel="CACC" color="255,255,255"/>

	<route id="route0_1_2" edges=" 001_001_1"/>
	<route id="route0_1_3" edges=" 001_001_1"/>
	<route id="route0_1_4" edges=" 001_001_1"/>
	<route id="route0_2_1" edges=" 001_001_2"/>
	<route id="route0_2_3" edges=" 001_001_2"/>
	<route id="route0_2_4" edges=" 001_001_2"/>
	<route id="route0_3_1" edges=" 001_001_3"/>
	<route id="route0_3_2" edges=" 001_001_3"/>
	<route id="route0_3_4" edges=" 001_001_3"/>
	<route id="route0_4_1" edges=" 001_001_4"/>
	<route id="route0_4_2" edges=" 001_001_4"/>
	<route id="route0_4_3" edges=" 001_001_4"/>
	<route id="route1_1_2" edges=" 002_001_1"/>
	<route id="route1_1_3" edges=" 002_001_1"/>
	<route id="route1_1_4" edges=" 002_001_1"/>
	<route id="route1_2_1" edges=" 002_001_2"/>
	<route id="route1_2_3" edges=" 002_001_2"/>
	<route id="route1_2_4" edges=" 002_001_2"/>
	<route id="route1_3_1" edges=" 002_001_3"/>
	<route id="route1_3_2" edges=" 002_001_3"/>
	<route id="route1_3_4" edges=" 002_001_3"/>
	<route id="route1_4_1" edges=" 002_001_4"/>
	<route id="route1_4_2" edges=" 002_001_4"/>
	<route id="route1_4_3" edges=" 002_001_4"/>

	<vehicle id="SX_0" type="car9" route="route0_4_2" depart="0" departLane = "0" departSpeed="11.180000"/>
	<vehicle id="LX_1" type="car6" route="route1_2_3" depart="1" departLane = "1" departSpeed="11.180000"/>
	<vehicle id="SX_2" type="car5" route="route1_2_4" depart="2" departLane = "0" departSpeed="11.180000"/>
	<vehicle id="SS_3" type="car6" route="route1_3_1" depart="3" departLane = "0" departSpeed="11.180000"/>
	<vehicle id="LL_4" type="car9" route="route1_4_1" depart="3" departLane = "1" departSpeed="11.180000"/>
	<vehicle id="SX_5" type="car8" route="route0_2_4" depart="4" departLane = "2" departSpeed="11.180000"/>
	<vehicle id="LX_6" type="car8" route="route1_2_3" depart="5" departLane = "2" departSpeed="11.180000"/>
	<vehicle id="LX_7" type="car8" route="route0_1_2" depart="8" departLane = "0" departSpeed="11.180000"/>
	<vehicle id="SX_8" type="car6" route="route0_2_4" depart="8" departLane = "2" departSpeed="11.180000"/>
	<vehicle id="SX_9" type="car9" route="route1_4_2" depart="9" departLane = "1" departSpeed="11.180000"/>
	<vehicle id="LS_10" type="car8" route="route0_2_3" depart="10" departLane = "2" departSpeed="11.180000"/>
	<vehicle id="LX_11" type="car5" route="route1_2_3" depart="10" departLane = "2" departSpeed="11.180000"/>
	<vehicle id="RX_12" type="car9" route="route1_4_3" depart="10" departLane = "0" departSpeed="11.180000"/>
	<vehicle id="RX_13" type="car9" route="route0_1_4" depart="11" departLane = "1" departSpeed="11.180000"/>
	<vehicle id="SX_14" type="car9" route="route0_2_4" depart="11" departLane = "0" departSpeed="11.180000"/>
	<vehicle id="RX_15" type="car5" route="route1_3_2" depart="11" departLane = "1" departSpeed="11.180000"/>
	<vehicle id="LX_16" type="car5" route="route0_1_2" depart="12" departLane = "2" departSpeed="11.180000"/>
	<vehicle id="SX_17" type="car9" route="route0_4_2" depart="12" departLane = "0" departSpeed="11.180000"/>
	<vehicle id="LX_18" type="car8" route="route1_2_3" depart="12" departLane = "0" departSpeed="11.180000"/>
	<vehicle id="SX_19" type="car5" route="route1_4_2" depart="12" departLane = "2" departSpeed="11.180000"/>
	<vehicle id="LX_20" type="car8" route="route0_1_2" depart="13" departLane = "1" departSpeed="11.180000"/>
	<vehicle id="LX_21" type="car5" route="route0_4_1" depart="13" departLane = "1" departSpeed="11.180000"/>
	<vehicle id="SX_22" type="car6" route="route1_4_2" depart="14" departLane = "1" departSpeed="11.180000"/>
	<vehicle id="LX_23" type="car9" route="route0_1_2" depart="15" departLane = "1" departSpeed="11.180000"/>
	<vehicle id="LL_24" type="car6" route="route0_2_3" depart="15" departLane = "1" departSpeed="11.180000"/>
	<vehicle id="SX_25" type="car6" route="route1_2_4" depart="15" departLane = "2" departSpeed="11.180000"/>
	<vehicle id="SL_26" type="car5" route="route0_1_3" depart="16" departLane = "1" departSpeed="11.180000"/>
	<vehicle id="SX_27" type="car5" route="route0_2_4" depart="16" departLane = "0" departSpeed="11.180000"/>
	<vehicle id="SX_28" type="car7" route="route0_4_2" depart="16" departLane = "1" departSpeed="11.180000"/>
	<vehicle id="SS_29" type="car6" route="route0_1_3" depart="17" departLane = "1" departSpeed="11.180000"/>
	<vehicle id="RX_30" type="car7" route="route1_4_3" depart="17" departLane = "1" departSpeed="11.180000"/>
	<vehicle id="SL_31" type="car7" route="route0_1_3" depart="18" departLane = "0" departSpeed="11.180000"/>
	<vehicle id="RX_32" type="car6" route="route0_2_1" depart="18" departLane = "2" departSpeed="11.180000"/>
	<vehicle id="RS_33" type="car6" route="route0_4_3" depart="18" departLane = "0" departSpeed="11.180000"/>
	<vehicle id="RS_34" type="car7" route="route1_2_1" depart="18" departLane = "1" departSpeed="11.180000"/>
	<vehicle id="SS_35" type="car9" route="route0_1_3" depart="19" departLane = "2" departSpeed="11.180000"/>
	<vehicle id="SX_36" type="car7" route="route1_4_2" depart="19" departLane = "1" departSpeed="11.180000"/>
	<vehicle id="RX_37" type="car9" route="route0_1_4" depart="20" departLane = "0" departSpeed="11.180000"/>
	<vehicle id="SX_38" type="car6" route="route1_4_2" depart="20" departLane = "2" departSpeed="11.180000"/>
	<vehicle id="RX_39" type="car5" route="route0_1_4" depart="21" departLane = "2" departSpeed="11.180000"/>
	<vehicle id="SL_40" type="car7" route="route1_3_1" depart="21" departLane = "1" departSpeed="11.180000"/>
	<vehicle id="SR_41" type="car5" route="route0_1_3" depart="22" departLane = "1" departSpeed="11.180000"/>
	<vehicle id="SX_42" type="car9" route="route0_2_4" depart="22" departLane = "1" departSpeed="11.180000"/>
	<vehicle id="LX_43" type="car5" route="route0_4_1" depart="22" departLane = "2" departSpeed="11.180000"/>
	<vehicle id="LX_44" type="car5" route="route0_4_1" depart="23" departLane = "0" departSpeed="11.180000"/>
	<vehicle id="LR_45" type="car8" route="route0_2_3" depart="24" departLane = "1" departSpeed="11.180000"/>
	<vehicle id="RX_46" type="car7" route="route0_2_1" depart="25" departLane = "1" departSpeed="11.180000"/>
	<vehicle id="RX_47" type="car7" route="route0_1_4" depart="26" departLane = "0" departSpeed="11.180000"/>
	<vehicle id="SX_48" type="car8" route="route0_2_4" depart="26" departLane = "1" departSpeed="11.180000"/>
	<vehicle id="RX_49" type="car9" route="route1_4_3" depart="26" departLane = "1" departSpeed="11.180000"/>
	<vehicle id="LX_50" type="car5" route="route0_1_2" depart="27" departLane = "1" departSpeed="11.180000"/>
	<vehicle id="LS_51" type="car9" route="route0_2_3" depart="27" departLane = "2" departSpeed="11.180000"/>
	<vehicle id="SX_52" type="car6" route="route1_2_4" depart="27" departLane = "0" departSpeed="11.180000"/>
	<vehicle id="LX_53" type="car9" route="route0_4_1" depart="28" departLane = "1" departSpeed="11.180000"/>
	<vehicle id="RX_54" type="car8" route="route1_3_2" depart="28" departLane = "1" departSpeed="11.180000"/>
	<vehicle id="SX_55" type="car7" route="route1_4_2" depart="28" departLane = "2" departSpeed="11.180000"/>
	<vehicle id="SX_56" type="car5" route="route1_4_2" depart="29" departLane = "1" departSpeed="11.180000"/>
	<vehicle id="LX_57" type="car7" route="route0_4_1" depart="30" departLane = "1" departSpeed="11.180000"/>
	<vehicle id="LX_58" type="car7" route="route0_4_1" depart="32" departLane = "1" departSpeed="11.180000"/>
	<vehicle id="SR_59" type="car8" route="route0_1_3" depart="33" departLane = "1" departSpeed="11.180000"/>
	<vehicle id="RX_60" type="car8" route="route1_3_2" depart="33" departLane = "2" departSpeed="11.180000"/>
	<vehicle id="SX_61" type="car8" route="route0_4_2" depart="34" departLane = "2" departSpeed="11.180000"/>
	<vehicle id="LX_62" type="car7" route="route1_2_3" depart="34" departLane = "2" departSpeed="11.180000"/>
	<vehicle id="RX_63" type="car5" route="route1_3_2" depart="34" departLane = "2" departSpeed="11.180000"/>
	<vehicle id="LS_64" type="car7" route="route0_2_3" depart="35" departLane = "1" departSpeed="11.180000"/>
	<vehicle id="LX_65" type="car5" route="route0_4_1" depart="35" departLane = "2" departSpeed="11.180000"/>
	<vehicle id="SX_66" type="car9" route="route1_2_4" depart="35" departLane = "1" departSpeed="11.180000"/>
	<vehicle id="SX_67" type="car5" route="route1_2_4" depart="36" departLane = "1" departSpeed="11.180000"/>
	<vehicle id="SS_68" type="car5" route="route1_3_1" depart="36" departLane = "2" departSpeed="11.180000"/>
	<vehicle id="SX_69" type="car6" route="route1_4_2" depart="37" departLane = "0" departSpeed="11.180000"/>
	<vehicle id="SX_70" type="car7" route="route0_2_4" depart="38" departLane = "0" departSpeed="11.180000"/>
	<vehicle id="RX_71" type="car6" route="route0_2_1" depart="40" departLane = "2" departSpeed="11.180000"/>
	<vehicle id="LL_72" type="car6" route="route0_2_3" depart="41" departLane = "1" departSpeed="11.180000"/>
	<vehicle id="LR_73" type="car6" route="route0_2_3" depart="42" departLane = "1" departSpeed="11.180000"/>
	<vehicle id="SX_74" type="car5" route="route0_4_2" depart="42" departLane = "2" departSpeed="11.180000"/>
	<vehicle id="LS_75" type="car5" route="route0_2_3" depart="43" departLane = "1" departSpeed="11.180000"/>
	<vehicle id="SX_76" type="car9" route="route1_2_4" depart="43" departLane = "2" departSpeed="11.180000"/>
	<vehicle id="SX_77" type="car5" route="route0_4_2" depart="44" departLane = "0" departSpeed="11.180000"/>
	<vehicle id="LR_78" type="car8" route="route0_2_3" depart="45" departLane = "2" departSpeed="11.180000"/>
	<vehicle id="RX_79" type="car8" route="route1_3_2" depart="47" departLane = "1" departSpeed="11.180000"/>
	<vehicle id="LR_80" type="car6" route="route0_2_3" depart="48" departLane = "2" departSpeed="11.180000"/>
	<vehicle id="RX_81" type="car5" route="route1_3_2" depart="48" departLane = "2" departSpeed="11.180000"/>
	<vehicle id="RX_82" type="car6" route="route1_4_3" depart="48" departLane = "1" departSpeed="11.180000"/>
	<vehicle id="SX_83" type="car6" route="route1_4_2" depart="49" departLane = "2" departSpeed="11.180000"/>
	<vehicle id="LX_84" type="car5" route="route0_1_2" depart="50" departLane = "1" departSpeed="11.180000"/>
	<vehicle id="RS_85" type="car6" route="route1_2_1" depart="50" departLane = "0" departSpeed="11.180000"/>
	<vehicle id="SL_86" type="car6" route="route1_3_1" depart="50" departLane = "1" departSpeed="11.180000"/>
	<vehicle id="RX_87" type="car8" route="route0_1_4" depart="51" departLane = "0" departSpeed="11.180000"/>
	<vehicle id="SS_88" type="car9" route="route1_3_1" depart="51" departLane = "0" departSpeed="11.180000"/>
	<vehicle id="SX_89" type="car9" route="route0_2_4" depart="52" departLane = "1" departSpeed="11.180000"/>
	<vehicle id="RS_90" type="car9" route="route1_2_1" depart="55" departLane = "0" departSpeed="11.180000"/>
	<vehicle id="LX_91" type="car8" route="route1_3_4" depart="55" departLane = "2" departSpeed="11.180000"/>
	<vehicle id="SS_92" type="car8" route="route0_1_3" depart="56" departLane = "0" departSpeed="11.180000"/>
	<vehicle id="SX_93" type="car6" route="route0_2_4" depart="56" departLane = "0" departSpeed="11.180000"/>
	<vehicle id="RL_94" type="car8" route="route0_4_3" depart="56" departLane = "0" departSpeed="11.180000"/>
	<vehicle id="LX_95" type="car8" route="route1_2_3" depart="56" departLane = "2" departSpeed="11.180000"/>
	<vehicle id="LX_96" type="car6" route="route1_3_4" depart="56" departLane = "2" departSpeed="11.180000"/>
	<vehicle id="LL_97" type="car5" route="route0_2_3" depart="57" departLane = "1" departSpeed="11.180000"/>
	<vehicle id="SX_98" type="car9" route="route0_4_2" depart="57" departLane = "2" departSpeed="11.180000"/>
	<vehicle id="LX_99" type="car5" route="route0_1_2" depart="58" departLane = "1" departSpeed="11.180000"/>
	<vehicle id="LL_100" type="car6" route="route0_2_3" depart="58" departLane = "0" departSpeed="11.180000"/>
	<vehicle id="LX_101" type="car6" route="route0_4_1" depart="58" departLane = "0" departSpeed="11.180000"/>
	<vehicle id="LX_102" type="car9" route="route1_2_3" depart="59" departLane = "0" departSpeed="11.180000"/>
	<vehicle id="LS_103" type="car6" route="route1_4_1" depart="59" departLane = "1" departSpeed="11.180000"/>
	<vehicle id="SX_104" type="car9" route="route0_2_4" depart="61" departLane = "2" departSpeed="11.180000"/>
	<vehicle id="RR_105" type="car8" route="route0_4_3" depart="61" departLane = "2" departSpeed="11.180000"/>
	<vehicle id="LX_106" type="car6" route="route1_3_4" depart="61" departLane = "1" departSpeed="11.180000"/>
	<vehicle id="LS_107" type="car8" route="route1_4_1" depart="61" departLane = "1" departSpeed="11.180000"/>
	<vehicle id="LX_108" type="car9" route="route1_3_4" depart="62" departLane = "2" departSpeed="11.180000"/>
	<vehicle id="RX_109" type="car5" route="route0_2_1" depart="63" departLane = "0" departSpeed="11.180000"/>
	<vehicle id="LX_110" type="car9" route="route1_3_4" depart="63" departLane = "2" departSpeed="11.180000"/>
	<vehicle id="RX_111" type="car9" route="route0_2_1" depart="64" departLane = "0" departSpeed="11.180000"/>
	<vehicle id="SX_112" type="car7" route="route1_2_4" depart="64" departLane = "2" departSpeed="11.180000"/>
	<vehicle id="RL_113" type="car6" route="route1_2_1" depart="65" departLane = "2" departSpeed="11.180000"/>
	<vehicle id="LR_114" type="car7" route="route1_4_1" depart="65" departLane = "0" departSpeed="11.180000"/>
	<vehicle id="LX_115" type="car8" route="route1_2_3" depart="66" departLane = "2" departSpeed="11.180000"/>
	<vehicle id="LX_116" type="car7" route="route1_2_3" depart="67" departLane = "0" departSpeed="11.180000"/>
	<vehicle id="SS_117" type="car7" route="route1_3_1" depart="67" departLane = "1" departSpeed="11.180000"/>
	<vehicle id="LX_118" type="car9" route="route0_1_2" depart="68" departLane = "1" departSpeed="11.180000"/>
	<vehicle id="LL_119" type="car8" route="route0_2_3" depart="68" departLane = "1" departSpeed="11.180000"/>
	<vehicle id="SX_120" type="car6" route="route1_4_2" depart="68" departLane = "2" departSpeed="11.180000"/>
	<vehicle id="RX_121" type="car5" route="route0_1_4" depart="69" departLane = "2" departSpeed="11.180000"/>
	<vehicle id="LX_122" type="car6" route="route1_2_3" depart="69" departLane = "2" departSpeed="11.180000"/>
	<vehicle id="RX_123" type="car5" route="route0_2_1" depart="70" departLane = "1" departSpeed="11.180000"/>
	<vehicle id="SX_124" type="car6" route="route0_4_2" depart="70" departLane = "1" departSpeed="11.180000"/>
	<vehicle id="SX_125" type="car9" route="route1_2_4" depart="70" departLane = "1" departSpeed="11.180000"/>
	<vehicle id="LX_126" type="car9" route="route0_4_1" depart="71" departLane = "0" departSpeed="11.180000"/>
	<vehicle id="SR_127" type="car9" route="route1_3_1" depart="71" departLane = "2" departSpeed="11.180000"/>
	<vehicle id="SX_128" type="car5" route="route0_4_2" depart="72" departLane = "0" departSpeed="11.180000"/>
	<vehicle id="LX_129" type="car6" route="route1_3_4" depart="72" departLane = "1" departSpeed="11.180000"/>
	<vehicle id="SS_130" type="car7" route="route1_3_1" depart="73" departLane = "0" departSpeed="11.180000"/>
	<vehicle id="SS_131" type="car8" route="route0_1_3" depart="74" departLane = "2" departSpeed="11.180000"/>
	<vehicle id="LL_132" type="car7" route="route0_2_3" depart="74" departLane = "2" departSpeed="11.180000"/>
	<vehicle id="SX_133" type="car7" route="route1_2_4" depart="74" departLane = "1" departSpeed="11.180000"/>
	<vehicle id="RR_134" type="car7" route="route0_4_3" depart="75" departLane = "0" departSpeed="11.180000"/>
	<vehicle id="RS_135" type="car6" route="route1_2_1" depart="75" departLane = "0" departSpeed="11.180000"/>
	<vehicle id="RL_136" type="car5" route="route0_4_3" depart="76" departLane = "1" departSpeed="11.180000"/>
	<vehicle id="SX_137" type="car8" route="route1_4_2" depart="76" departLane = "0" departSpeed="11.180000"/>
	<vehicle id="RX_138" type="car6" route="route0_1_4" depart="78" departLane = "2" departSpeed="11.180000"/>
	<vehicle id="RX_139" type="car9" route="route0_2_1" depart="79" departLane = "1" departSpeed="11.180000"/>
	<vehicle id="SX_140" type="car9" route="route0_4_2" depart="79" departLane = "2" departSpeed="11.180000"/>
	<vehicle id="RX_141" type="car8" route="route1_4_3" depart="79" departLane = "1" departSpeed="11.180000"/>
	<vehicle id="SX_142" type="car7" route="route1_2_4" depart="80" departLane = "0" departSpeed="11.180000"/>
	<vehicle id="RX_143" type="car5" route="route0_2_1" depart="81" departLane = "2" departSpeed="11.180000"/>
	<vehicle id="LX_144" type="car9" route="route0_4_1" depart="81" departLane = "2" departSpeed="11.180000"/>
	<vehicle id="LR_145" type="car5" route="route1_4_1" depart="81" departLane = "1" departSpeed="11.180000"/>
	<vehicle id="LX_146" type="car5" route="route0_1_2" depart="82" departLane = "0" departSpeed="11.180000"/>
	<vehicle id="SX_147" type="car5" route="route1_2_4" depart="82" departLane = "1" departSpeed="11.180000"/>
	<vehicle id="LX_148" type="car7" route="route0_4_1" depart="83" departLane = "1" departSpeed="11.180000"/>
	<vehicle id="LX_149" type="car5" route="route0_1_2" depart="85" departLane = "1" departSpeed="11.180000"/>
	<vehicle id="SX_150" type="car9" route="route0_4_2" depart="85" departLane = "2" departSpeed="11.180000"/>
	<vehicle id="RX_151" type="car7" route="route1_4_3" depart="85" departLane = "1" departSpeed="11.180000"/>
	<vehicle id="SX_152" type="car8" route="route0_2_4" depart="86" departLane = "0" departSpeed="11.180000"/>
	<vehicle id="RX_153" type="car9" route="route1_4_3" depart="86" departLane = "0" departSpeed="11.180000"/>
	<vehicle id="RX_154" type="car6" route="route1_3_2" depart="87" departLane = "2" departSpeed="11.180000"/>
	<vehicle id="SX_155" type="car8" route="route0_2_4" depart="90" departLane = "1" departSpeed="11.180000"/>
	<vehicle id="SL_156" type="car8" route="route0_1_3" depart="92" departLane = "1" departSpeed="11.180000"/>
	<vehicle id="LX_157" type="car5" route="route1_2_3" depart="94" departLane = "1" departSpeed="11.180000"/>
	<vehicle id="SX_158" type="car6" route="route0_4_2" depart="95" departLane = "2" departSpeed="11.180000"/>
	<vehicle id="SX_159" type="car7" route="route1_2_4" depart="95" departLane = "1" departSpeed="11.180000"/>
	<vehicle id="RX_160" type="car5" route="route0_1_4" depart="96" departLane = "0" departSpeed="11.180000"/>
	<vehicle id="RR_161" type="car7" route="route1_2_1" depart="96" departLane = "0" departSpeed="11.180000"/>
	<vehicle id="RR_162" type="car5" route="route1_2_1" depart="97" departLane = "1" departSpeed="11.180000"/>
	<vehicle id="RL_163" type="car7" route="route1_2_1" depart="98" departLane = "1" departSpeed="11.180000"/>
	<vehicle id="SL_164" type="car9" route="route1_3_1" depart="98" departLane = "2" departSpeed="11.180000"/>
	<vehicle id="RX_165" type="car9" route="route1_4_3" depart="98" departLane = "0" departSpeed="11.180000"/>
	<vehicle id="RX_166" type="car6" route="route0_2_1" depart="99" departLane = "1" departSpeed="11.180000"/>
	<vehicle id="SX_167" type="car7" route="route1_4_2" depart="99" departLane = "1" departSpeed="11.180000"/>
	<vehicle id="SX_168" type="car8" route="route0_2_4" depart="100" departLane = "0" departSpeed="11.180000"/>
	<vehicle id="RX_169" type="car8" route="route0_1_4" depart="101" departLane = "0" departSpeed="11.180000"/>
	<vehicle id="RX_170" type="car8" route="route0_2_1" depart="101" departLane = "0" departSpeed="11.180000"/>
	<vehicle id="LX_171" type="car6" route="route0_4_1" depart="101" departLane = "0" departSpeed="11.180000"/>
	<vehicle id="RX_172" type="car6" route="route1_3_2" depart="101" departLane = "2" departSpeed="11.180000"/>
	<vehicle id="RX_173" type="car5" route="route0_2_1" depart="102" departLane = "2" departSpeed="11.180000"/>
	<vehicle id="LX_174" type="car7" route="route0_1_2" depart="103" departLane = "0" departSpeed="11.180000"/>
	<vehicle id="LS_175" type="car7" route="route0_2_3" depart="103" departLane = "2" departSpeed="11.180000"/>
	<vehicle id="LX_176" type="car9" route="route1_2_3" depart="103" departLane = "0" departSpeed="11.180000"/>
	<vehicle id="RX_177" type="car5" route="route1_3_2" depart="103" departLane = "1" departSpeed="11.180000"/>
	<vehicle id="RX_178" type="car6" route="route0_2_1" depart="104" departLane = "0" departSpeed="11.180000"/>
	<vehicle id="RR_179" type="car8" route="route1_2_1" depart="104" departLane = "0" departSpeed="11.180000"/>
	<vehicle id="LX_180" type="car5" route="route0_4_1" depart="105" departLane = "2" departSpeed="11.180000"/>
	<vehicle id="LX_181" type="car8" route="route1_2_3" depart="105" departLane = "0" departSpeed="11.180000"/>
	<vehicle id="SS_182" type="car5" route="route0_1_3" depart="107" departLane = "1" departSpeed="11.180000"/>
	<vehicle id="RX_183" type="car8" route="route0_2_1" depart="107" departLane = "1" departSpeed="11.180000"/>
	<vehicle id="SS_184" type="car9" route="route1_3_1" depart="107" departLane = "2" departSpeed="11.180000"/>
	<vehicle id="RX_185" type="car8" route="route0_2_1" depart="108" departLane = "0" departSpeed="11.180000"/>
	<vehicle id="SX_186" type="car9" route="route1_2_4" depart="108" departLane = "2" departSpeed="11.180000"/>
	<vehicle id="LX_187" type="car7" route="route0_1_2" depart="109" departLane = "0" departSpeed="11.180000"/>
	<vehicle id="RS_188" type="car7" route="route1_2_1" depart="109" departLane = "2" departSpeed="11.180000"/>
	<vehicle id="LR_189" type="car5" route="route1_4_1" depart="109" departLane = "1" departSpeed="11.180000"/>
	<vehicle id="RX_190" type="car7" route="route0_1_4" depart="110" departLane = "1" departSpeed="11.180000"/>
	<vehicle id="LR_191" type="car8" route="route0_2_3" depart="111" departLane = "2" departSpeed="11.180000"/>
	<vehicle id="RL_192" type="car6" route="route0_4_3" depart="111" departLane = "2" departSpeed="11.180000"/>
	<vehicle id="RX_193" type="car7" route="route1_4_3" depart="111" departLane = "0" departSpeed="11.180000"/>
	<vehicle id="SX_194" type="car8" route="route0_2_4" depart="112" departLane = "2" departSpeed="11.180000"/>
	<vehicle id="LX_195" type="car8" route="route0_4_1" depart="112" departLane = "1" departSpeed="11.180000"/>
	<vehicle id="SX_196" type="car7" route="route0_2_4" depart="113" departLane = "1" departSpeed="11.180000"/>
	<vehicle id="LX_197" type="car6" route="route0_4_1" depart="113" departLane = "0" departSpeed="11.180000"/>
	<vehicle id="LX_198" type="car6" route="route0_1_2" depart="114" departLane = "1" departSpeed="11.180000"/>
	<vehicle id="LL_199" type="car9" route="route0_2_3" depart="114" departLane = "0" departSpeed="11.180000"/>
	<vehicle id="SS_200" type="car5" route="route1_3_1" depart="114" departLane = "0" departSpeed="11.180000"/>
	<vehicle id="LR_201" type="car8" route="route0_2_3" depart="115" departLane = "1" departSpeed="11.180000"/>
	<vehicle id="LX_202" type="car8" route="route1_2_3" depart="115" departLane = "0" departSpeed="11.180000"/>
	<vehicle id="LX_203" type="car6" route="route0_1_2" depart="116" departLane = "0" departSpeed="11.180000"/>
	<vehicle id="RX_204" type="car7" route="route0_2_1" depart="116" departLane = "0" departSpeed="11.180000"/>
	<vehicle id="RR_205" type="car6" route="route1_2_1" depart="117" departLane = "2" departSpeed="11.180000"/>
	<vehicle id="SX_206" type="car9" route="route0_4_2" depart="118" departLane = "0" departSpeed="11.180000"/>
	<vehicle id="SX_207" type="car7" route="route1_4_2" depart="118" departLane = "2" departSpeed="11.180000"/>
	<vehicle id="LX_208" type="car9" route="route0_4_1" depart="119" departLane = "0" departSpeed="11.180000"/>
	<vehicle id="SL_209" type="car9" route="route1_3_1" depart="120" departLane = "0" departSpeed="11.180000"/>
	<vehicle id="SX_210" type="car8" route="route1_4_2" depart="120" departLane = "1" departSpeed="11.180000"/>
	<vehicle id="SX_211" type="car5" route="route0_2_4" depart="121" departLane = "2" departSpeed="11.180000"/>
	<vehicle id="RL_212" type="car6" route="route0_4_3" depart="123" departLane = "0" departSpeed="11.180000"/>
	<vehicle id="RR_213" type="car7" route="route1_2_1" depart="123" departLane = "1" departSpeed="11.180000"/>
	<vehicle id="RX_214" type="car5" route="route1_4_3" depart="123" departLane = "2" departSpeed="11.180000"/>
	<vehicle id="RX_215" type="car8" route="route0_2_1" depart="124" departLane = "2" departSpeed="11.180000"/>
	<vehicle id="RR_216" type="car6" route="route1_2_1" depart="124" departLane = "0" departSpeed="11.180000"/>
	<vehicle id="RR_217" type="car7" route="route0_4_3" depart="125" departLane = "0" departSpeed="11.180000"/>
	<vehicle id="SX_218" type="car8" route="route1_2_4" depart="125" departLane = "1" departSpeed="11.180000"/>
	<vehicle id="LX_219" type="car6" route="route1_3_4" depart="125" departLane = "2" departSpeed="11.180000"/>
	<vehicle id="SS_220" type="car7" route="route0_1_3" depart="126" departLane = "2" departSpeed="11.180000"/>
	<vehicle id="LX_221" type="car9" route="route1_3_4" depart="126" departLane = "1" departSpeed="11.180000"/>
	<vehicle id="RX_222" type="car6" route="route0_1_4" depart="128" departLane = "0" departSpeed="11.180000"/>
	<vehicle id="RX_223" type="car6" route="route1_4_3" depart="128" departLane = "0" departSpeed="11.180000"/>
	<vehicle id="SS_224" type="car9" route="route0_1_3" depart="129" departLane = "1" departSpeed="11.180000"/>
	<vehicle id="SX_225" type="car8" route="route0_4_2" depart="129" departLane = "1" departSpeed="11.180000"/>
	<vehicle id="LS_226" type="car9" route="route1_4_1" depart="129" departLane = "2" departSpeed="11.180000"/>
	<vehicle id="SX_227" type="car6" route="route0_4_2" depart="130" departLane = "0" departSpeed="11.180000"/>
	<vehicle id="LX_228" type="car8" route="route1_2_3" depart="130" departLane = "0" departSpeed="11.180000"/>
	<vehicle id="RX_229" type="car5" route="route1_4_3" depart="130" departLane = "2" departSpeed="11.180000"/>
	<vehicle id="LX_230" type="car9" route="route1_2_3" depart="131" departLane = "2" departSpeed="11.180000"/>
	<vehicle id="SL_231" type="car8" route="route1_3_1" depart="131" departLane = "0" departSpeed="11.180000"/>
	<vehicle id="LR_232" type="car7" route="route1_4_1" depart="131" departLane = "0" departSpeed="11.180000"/>
	<vehicle id="SR_233" type="car6" route="route0_1_3" depart="132" departLane = "0" departSpeed="11.180000"/>
	<vehicle id="LL_234" type="car7" route="route0_2_3" depart="132" departLane = "2" departSpeed="11.180000"/>
	<vehicle id="RR_235" type="car9" route="route1_2_1" depart="132" departLane = "2" departSpeed="11.180000"/>
	<vehicle id="LR_236" type="car5" route="route1_4_1" depart="132" departLane = "0" departSpeed="11.180000"/>
	<vehicle id="RS_237" type="car8" route="route1_2_1" depart="134" departLane = "1" departSpeed="11.180000"/>
	<vehicle id="SS_238" type="car5" route="route1_3_1" depart="134" departLane = "1" departSpeed="11.180000"/>
	<vehicle id="RR_239" type="car6" route="route0_4_3" depart="135" departLane = "0" departSpeed="11.180000"/>
	<vehicle id="SX_240" type="car6" route="route1_4_2" depart="135" departLane = "1" departSpeed="11.180000"/>
	<vehicle id="LX_241" type="car7" route="route0_1_2" depart="136" departLane = "1" departSpeed="11.180000"/>
	<vehicle id="LX_242" type="car5" route="route0_4_1" depart="136" departLane = "2" departSpeed="11.180000"/>
	<vehicle id="RS_243" type="car8" route="route1_2_1" depart="136" departLane = "0" departSpeed="11.180000"/>
	<vehicle id="SL_244" type="car5" route="route0_1_3" depart="137" departLane = "2" departSpeed="11.180000"/>
	<vehicle id="LL_245" type="car7" route="route0_2_3" depart="137" departLane = "0" departSpeed="11.180000"/>
	<vehicle id="LS_246" type="car9" route="route0_2_3" depart="138" departLane = "2" departSpeed="11.180000"/>
	<vehicle id="LX_247" type="car7" route="route1_2_3" depart="138" departLane = "2" departSpeed="11.180000"/>
	<vehicle id="LL_248" type="car9" route="route1_4_1" depart="138" departLane = "2" departSpeed="11.180000"/>
	<vehicle id="SX_249" type="car5" route="route1_2_4" depart="139" departLane = "2" departSpeed="11.180000"/>
	<vehicle id="LX_250" type="car8" route="route1_3_4" depart="139" departLane = "0" departSpeed="11.180000"/>
	<vehicle id="RX_251" type="car6" route="route0_2_1" depart="141" departLane = "2" departSpeed="11.180000"/>
	<vehicle id="LX_252" type="car7" route="route1_3_4" depart="141" departLane = "0" departSpeed="11.180000"/>
	<vehicle id="SX_253" type="car9" route="route0_4_2" depart="142" departLane = "1" departSpeed="11.180000"/>
	<vehicle id="SX_254" type="car7" route="route1_4_2" depart="142" departLane = "2" departSpeed="11.180000"/>
	<vehicle id="LX_255" type="car7" route="route0_4_1" depart="145" departLane = "1" departSpeed="11.180000"/>
	<vehicle id="LX_256" type="car8" route="route1_3_4" depart="145" departLane = "0" departSpeed="11.180000"/>
	<vehicle id="LX_257" type="car9" route="route1_3_4" depart="146" departLane = "2" departSpeed="11.180000"/>
	<vehicle id="LX_258" type="car6" route="route0_1_2" depart="147" departLane = "2" departSpeed="11.180000"/>
	<vehicle id="LX_259" type="car5" route="route1_3_4" depart="147" departLane = "1" departSpeed="11.180000"/>