<routes>

	<vType id="car5" accel="200.0" decel="200.0" sigma="0.0" length="5" minGap="3.000000" maxSpeed="11.180000" tau="0.100000" carFollowModel="CACC" color="255,255,255"/>
	<vType id="car6" accel="200.0" decel="200.0" sigma="0.0" length="6" minGap="3.000000" maxSpeed="11.180000" tau="0.100000" carFollowModel="CACC" color="255,255,255"/>
	<vType id="car7" accel="200.0" decel="200.0" sigma="0.0" length="7" minGap="3.000000" maxSpeed="11.180000" tau="0.100000" carFollowModel="CACC" color="255,255,255"/>
	<vType id="car8" accel="200.0" decel="200.0" sigma="0.0" length="8" minGap="3.000000" maxSpeed="11.180000" tau="0.100000" carFollowModel="CACC" color="255,255,255"/>
	<vType id="car9" accel="200.0" decel="200.0" sigma="0.0" length="9" minGap="3.000000" maxSpeed="11.180000" tau="0.100000" carFollowModel="CACC" color="255,255,255"/>

	<route id="route0_1_2" edges=" 001_001_1"/>
	<route id="route0_1_3" edges=" 001_001_1"/>
	<route id="route0_1_4" edges=" 001_001_1"/>
	<route id="route0_2_1" edges=" 001_001_2"/>
	<route id="route0_2_3" edges=" 001_001_2"/>
	<route id="route0_2_4" edges=" 001_001_2"/>
	<route id="route0_3_1" edges=" 001_001_3"/>
	<route id="route0_3_2" edges=" 001_001_3"/>
	<route id="route0_3_4" edges=" 001_001_3"/>
	<route id="route0_4_1" edges=" 001_001_4"/>
	<route id="route0_4_2" edges=" 001_001_4"/>
	<route id="route0_4_3" edges=" 001_001_4"/>
	<route id="route1_1_2" edges=" 002_001_1"/>
	<route id="route1_1_3" edges=" 002_001_1"/>
	<route id="route1_1_4" edges=" 002_001_1"/>
	<route id="route1_2_1" edges=" 002_001_2"/>
	<route id="route1_2_3" edges=" 002_001_2"/>
	<route id="route1_2_4" edges=" 002_001_2"/>
	<route id="route1_3_1" edges=" 002_001_3"/>
	<route id="route1_3_2" edges=" 002_001_3"/>
	<route id="route1_3_4" edges=" 002_001_3"/>
	<route id="route1_4_1" edges=" 002_001_4"/>
	<route id="route1_4_2" edges=" 002_001_4"/>
	<route id="route1_4_3" edges=" 002_001_4"/>

	<vehicle id="SX_0" type="car8" route="route0_2_4" depart="0" departLane = "1" departSpeed="11.180000"/>
	<vehicle id="RS_1" type="car9" route="route0_4_3" depart="0" departLane = "0" departSpeed="11.180000"/>
	<vehicle id="SX_2" type="car7" route="route1_2_4" depart="0" departLane = "1" departSpeed="11.180000"/>
	<vehicle id="SX_3" type="car6" route="route1_4_2" depart="0" departLane = "1" departSpeed="11.180000"/>
	<vehicle id="SS_4" type="car7" route="route0_1_3" depart="1" departLane = "1" departSpeed="11.180000"/>
	<vehicle id="RX_5" type="car5" route="route0_2_1" depart="1" departLane = "0" departSpeed="11.180000"/>
	<vehicle id="RS_6" type="car7" route="route0_4_3" depart="1" departLane = "0" departSpeed="11.180000"/>
	<vehicle id="RX_7" type="car9" route="route1_3_2" depart="1" departLane = "0" departSpeed="11.180000"/>
	<vehicle id="SS_8" type="car5" route="route0_1_3" depart="2" departLane = "1" departSpeed="11.180000"/>
	<vehicle id="RL_9" type="car8" route="route0_4_3" depart="2" departLane = "0" departSpeed="11.180000"/>
	<vehicle id="LX_10" type="car7" route="route1_2_3" depart="2" departLane = "2" departSpeed="11.180000"/>
	<vehicle id="LX_11" type="car9" route="route1_3_4" depart="2" departLane = "2" departSpeed="11.180000"/>
	<vehicle id="RX_12" type="car6" route="route1_4_3" depart="2" departLane = "0" departSpeed="11.180000"/>
	<vehicle id="RX_13" type="car9" route="route0_2_1" depart="3" departLane = "0" departSpeed="11.180000"/>
	<vehicle id="RR_14" type="car9" route="route0_4_3" depart="3" departLane = "0" departSpeed="11.180000"/>
	<vehicle id="RX_15" type="car8" route="route1_3_2" depart="3" departLane = "0" departSpeed="11.180000"/>
	<vehicle id="SX_16" type="car5" route="route1_4_2" depart="3" departLane = "1" departSpeed="11.180000"/>
	<vehicle id="RX_17" type="car7" route="route0_1_4" depart="4" departLane = "0" departSpeed="11.180000"/>
	<vehicle id="LS_18" type="car7" route="route0_2_3" depart="4" departLane = "2" departSpeed="11.180000"/>
	<vehicle id="LX_19" type="car5" route="route0_4_1" depart="4" departLane = "2" departSpeed="11.180000"/>
	<vehicle id="RS_20" type="car9" route="route1_2_1" depart="4" departLane = "0" departSpeed="11.180000"/>
	<vehicle id="SL_21" type="car6" route="route1_3_1" depart="4" departLane = "1" departSpeed="11.180000"/>
	<vehicle id="RX_22" type="car5" route="route0_1_4" depart="5" departLane = "0" departSpeed="11.180000"/>
	<vehicle id="SS_23" type="car7" route="route1_3_1" depart="5" departLane = "1" departSpeed="11.180000"/>
	<vehicle id="LS_24" type="car5" route="route1_4_1" depart="5" departLane = "2" departSpeed="11.180000"/>
	<vehicle id="SS_25" type="car9" route="route0_1_3" depart="6" departLane = "1" departSpeed="11.180000"/>
	<vehicle id="RX_26" type="car9" route="route0_2_1" depart="6" departLane = "0" departSpeed="11.180000"/>
	<vehicle id="RS_27" type="car7" route="route0_4_3" depart="6" departLane = "0" departSpeed="11.180000"/>
	<vehicle id="SX_28" type="car9" route="route1_2_4" depart="6" departLane = "1" departSpeed="11.180000"/>
	<vehicle id="RX_29" type="car7" route="route1_3_2" depart="6" departLane = "0" departSpeed="11.180000"/>
	<vehicle id="LR_30" type="car7" route="route1_4_1" depart="6" departLane = "2" departSpeed="11.180000"/>
	<vehicle id="RX_31" type="car6" route="route0_1_4" depart="7" departLane = "0" departSpeed="11.180000"/>
	<vehicle id="LL_32" type="car7" route="route0_2_3" depart="7" departLane = "2" departSpeed="11.180000"/>
	<vehicle id="LX_33" type="car5" route="route0_4_1" depart="7" departLane = "2" departSpeed="11.180000"/>
	<vehicle id="SX_34" type="car6" route="route1_2_4" depart="7" departLane = "1" departSpeed="11.180000"/>
	<vehicle id="SX_35" type="car8" route="route1_2_4" depart="8" departLane = "1" departSpeed="11.180000"/>
	<vehicle id="SX_36" type="car9" route="route1_4_2" depart="8" departLane = "1" departSpeed="11.180000"/>
	<vehicle id="RL_37" type="car8" route="route1_2_1" depart="9" departLane = "0" departSpeed="11.180000"/>
	<vehicle id="LX_38" type="car8" route="route1_3_4" depart="9" departLane = "2" departSpeed="11.180000"/>
	<vehicle id="LS_39" type="car7" route="route1_4_1" depart="9" departLane = "2" departSpeed="11.180000"/>
	<vehicle id="LX_40" type="car9" route="route0_1_2" depart="10" departLane = "2" departSpeed="11.180000"/>
	<vehicle id="SX_41" type="car9" route="route0_2_4" depart="10" departLane = "1" departSpeed="11.180000"/>
	<vehicle id="LX_42" type="car6" route="route0_4_1" depart="10" departLane = "2" departSpeed="11.180000"/>
	<vehicle id="LX_43" type="car7" route="route1_2_3" depart="10" departLane = "2" departSpeed="11.180000"/>
	<vehicle id="LX_44" type="car6" route="route1_3_4" depart="10" departLane = "2" departSpeed="11.180000"/>
	<vehicle id="SX_45" type="car6" route="route1_4_2" depart="10" departLane = "1" departSpeed="11.180000"/>
	<vehicle id="LX_46" type="car5" route="route0_1_2" depart="11" departLane = "2" departSpeed="11.180000"/>
	<vehicle id="LS_47" type="car6" route="route0_2_3" depart="11" departLane = "2" departSpeed="11.180000"/>
	<vehicle id="RL_48" type="car9" route="route1_2_1" depart="11" departLane = "0" departSpeed="11.180000"/>
	<vehicle id="RX_49" type="car9" route="route1_3_2" depart="11" departLane = "0" departSpeed="11.180000"/>
	<vehicle id="LR_50" type="car5" route="route1_4_1" depart="11" departLane = "2" departSpeed="11.180000"/>
	<vehicle id="SR_51" type="car6" route="route0_1_3" depart="12" departLane = "1" departSpeed="11.180000"/>
	<vehicle id="SX_52" type="car9" route="route0_2_4" depart="12" departLane = "1" departSpeed="11.180000"/>
	<vehicle id="RL_53" type="car5" route="route0_4_3" depart="12" departLane = "0" departSpeed="11.180000"/>
	<vehicle id="LX_54" type="car5" route="route1_2_3" depart="12" departLane = "2" departSpeed="11.180000"/>
	<vehicle id="LX_55" type="car5" route="route1_3_4" depart="12" departLane = "2" departSpeed="11.180000"/>
	<vehicle id="LL_56" type="car6" route="route1_4_1" depart="12" departLane = "2" departSpeed="11.180000"/>
	<vehicle id="LX_57" type="car8" route="route0_1_2" depart="13" departLane = "2" departSpeed="11.180000"/>
	<vehicle id="SX_58" type="car5" route="route0_2_4" depart="13" departLane = "1" departSpeed="11.180000"/>
	<vehicle id="LX_59" type="car8" route="route1_2_3" depart="13" departLane = "2" departSpeed="11.180000"/>
	<vehicle id="RX_60" type="car7" route="route1_3_2" depart="13" departLane = "0" departSpeed="11.180000"/>
	<vehicle id="SX_61" type="car5" route="route1_4_2" depart="13" departLane = "1" departSpeed="11.180000"/>
	<vehicle id="LX_62" type="car7" route="route0_1_2" depart="14" departLane = "2" departSpeed="11.180000"/>
	<vehicle id="SX_63" type="car5" route="route0_2_4" depart="14" departLane = "1" departSpeed="11.180000"/>
	<vehicle id="LX_64" type="car5" route="route0_4_1" depart="14" departLane = "2" departSpeed="11.180000"/>
	<vehicle id="SX_65" type="car8" route="route1_2_4" depart="14" departLane = "1" departSpeed="11.180000"/>
	<vehicle id="RX_66" type="car7" route="route1_3_2" depart="14" departLane = "0" departSpeed="11.180000"/>
	<vehicle id="LX_67" type="car9" route="route0_1_2" depart="15" departLane = "2" departSpeed="11.180000"/>
	<vehicle id="RX_68" type="car6" route="route0_2_1" depart="15" departLane = "0" departSpeed="11.180000"/>
	<vehicle id="LX_69" type="car6" route="route1_2_3" depart="15" departLane = "2" departSpeed="11.180000"/>
	<vehicle id="RX_70" type="car7" route="route1_4_3" depart="15" departLane = "0" departSpeed="11.180000"/>
	<vehicle id="LX_71" type="car8" route="route0_1_2" depart="16" departLane = "2" departSpeed="11.180000"/>
	<vehicle id="LS_72" type="car5" route="route0_2_3" depart="16" departLane = "2" departSpeed="11.180000"/>
	<vehicle id="LX_73" type="car8" route="route0_4_1" depart="16" departLane = "2" departSpeed="11.180000"/>
	<vehicle id="RX_74" type="car8" route="route0_1_4" depart="17" departLane = "0" departSpeed="11.180000"/>
	<vehicle id="LX_75" type="car9" route="route0_4_1" depart="17" departLane = "2" departSpeed="11.180000"/>
	<vehicle id="RL_76" type="car8" route="route1_2_1" depart="17" departLane = "0" departSpeed="11.180000"/>
	<vehicle id="RX_77" type="car7" route="route1_3_2" depart="17" departLane = "0" departSpeed="11.180000"/>
	<vehicle id="RX_78" type="car9" route="route1_4_3" depart="17" departLane = "0" departSpeed="11.180000"/>
	<vehicle id="LX_79" type="car6" route="route0_1_2" depart="18" departLane = "2" departSpeed="11.180000"/>
	<vehicle id="SX_80" type="car8" route="route0_2_4" depart="18" departLane = "1" departSpeed="11.180000"/>
	<vehicle id="SX_81" type="car7" route="route0_4_2" depart="18" departLane = "1" departSpeed="11.180000"/>
	<vehicle id="SX_82" type="car9" route="route1_2_4" depart="18" departLane = "1" departSpeed="11.180000"/>
	<vehicle id="LR_83" type="car9" route="route1_4_1" depart="18" departLane = "2" departSpeed="11.180000"/>
	<vehicle id="SR_84" type="car7" route="route0_1_3" depart="19" departLane = "1" departSpeed="11.180000"/>
	<vehicle id="RX_85" type="car8" route="route0_2_1" depart="19" departLane = "0" departSpeed="11.180000"/>
	<vehicle id="LX_86" type="car9" route="route1_2_3" depart="19" departLane = "2" departSpeed="11.180000"/>
	<vehicle id="RX_87" type="car7" route="route1_3_2" depart="19" departLane = "0" departSpeed="11.180000"/>
	<vehicle id="SX_88" type="car6" route="route1_4_2" depart="19" departLane = "1" departSpeed="11.180000"/>
	<vehicle id="RX_89" type="car8" route="route0_1_4" depart="20" departLane = "0" departSpeed="11.180000"/>
	<vehicle id="SX_90" type="car9" route="route0_2_4" depart="20" departLane = "1" departSpeed="11.180000"/>
	<vehicle id="RR_91" type="car9" route="route1_2_1" depart="20" departLane = "0" departSpeed="11.180000"/>
	<vehicle id="RX_92" type="car5" route="route1_3_2" depart="20" departLane = "0" departSpeed="11.180000"/>
	<vehicle id="SX_93" type="car5" route="route1_4_2" depart="20" departLane = "1" departSpeed="11.180000"/>
	<vehicle id="RX_94" type="car6" route="route0_1_4" depart="21" departLane = "0" departSpeed="11.180000"/>
	<vehicle id="SX_95" type="car8" route="route0_2_4" depart="21" departLane = "1" departSpeed="11.180000"/>
	<vehicle id="SX_96" type="car5" route="route1_2_4" depart="21" departLane = "1" departSpeed="11.180000"/>
	<vehicle id="SX_97" type="car7" route="route1_4_2" depart="21" departLane = "1" departSpeed="11.180000"/>
	<vehicle id="LL_98" type="car8" route="route0_2_3" depart="22" departLane = "2" departSpeed="11.180000"/>
	<vehicle id="SX_99" type="car5" route="route0_4_2" depart="22" departLane = "1" departSpeed="11.180000"/>
	<vehicle id="LX_100" type="car5" route="route1_3_4" depart="22" departLane = "2" departSpeed="11.180000"/>
	<vehicle id="SX_101" type="car8" route="route1_4_2" depart="22" departLane = "1" departSpeed="11.180000"/>
	<vehicle id="SL_102" type="car6" route="route0_1_3" depart="23" departLane = "1" departSpeed="11.180000"/>
	<vehicle id="LS_103" type="car5" route="route0_2_3" depart="23" departLane = "2" departSpeed="11.180000"/>
	<vehicle id="SX_104" type="car9" route="route1_2_4" depart="23" departLane = "1" departSpeed="11.180000"/>
	<vehicle id="SS_105" type="car5" route="route1_3_1" depart="23" departLane = "1" departSpeed="11.180000"/>
	<vehicle id="SX_106" type="car6" route="route1_4_2" depart="23" departLane = "1" departSpeed="11.180000"/>
	<vehicle id="SX_107" type="car6" route="route0_2_4" depart="24" departLane = "1" departSpeed="11.180000"/>
	<vehicle id="RS_108" type="car8" route="route0_4_3" depart="24" departLane = "0" departSpeed="11.180000"/>
	<vehicle id="SX_109" type="car5" route="route1_2_4" depart="24" departLane = "1" departSpeed="11.180000"/>
	<vehicle id="RX_110" type="car8" route="route1_3_2" depart="24" departLane = "0" departSpeed="11.180000"/>
	<vehicle id="RX_111" type="car5" route="route1_4_3" depart="24" departLane = "0" departSpeed="11.180000"/>
	<vehicle id="RX_112" type="car9" route="route0_2_1" depart="25" departLane = "0" departSpeed="11.180000"/>
	<vehicle id="LX_113" type="car5" route="route1_2_3" depart="25" departLane = "2" departSpeed="11.180000"/>
	<vehicle id="RX_114" type="car5" route="route1_4_3" depart="25" departLane = "0" departSpeed="11.180000"/>
	<vehicle id="RX_115" type="car6" route="route0_1_4" depart="26" departLane = "0" departSpeed="11.180000"/>
	<vehicle id="RX_116" type="car9" route="route0_2_1" depart="26" departLane = "0" departSpeed="11.180000"/>
	<vehicle id="LX_117" type="car7" route="route0_4_1" depart="26" departLane = "2" departSpeed="11.180000"/>
	<vehicle id="RX_118" type="car9" route="route1_4_3" depart="26" departLane = "0" departSpeed="11.180000"/>
	<vehicle id="LX_119" type="car8" route="route0_1_2" depart="27" departLane = "2" departSpeed="11.180000"/>
	<vehicle id="SX_120" type="car7" route="route0_2_4" depart="27" departLane = "1" departSpeed="11.180000"/>
	<vehicle id="LX_121" type="car8" route="route1_2_3" depart="27" departLane = "2" departSpeed="11.180000"/>
	<vehicle id="RX_122" type="car5" route="route1_3_2" depart="27" departLane = "0" departSpeed="11.180000"/>
	<vehicle id="RX_123" type="car7" route="route1_4_3" depart="27" departLane = "0" departSpeed="11.180000"/>
	<vehicle id="SS_124" type="car7" route="route0_1_3" depart="28" departLane = "1" departSpeed="11.180000"/>
	<vehicle id="LR_125" type="car7" route="route0_2_3" depart="28" departLane = "2" departSpeed="11.180000"/>
	<vehicle id="SX_126" type="car5" route="route0_4_2" depart="28" departLane = "1" departSpeed="11.180000"/>
	<vehicle id="RR_127" type="car6" route="route1_2_1" depart="28" departLane = "0" departSpeed="11.180000"/>
	<vehicle id="RX_128" type="car9" route="route1_3_2" depart="28" departLane = "0" departSpeed="11.180000"/>
	<vehicle id="RX_129" type="car8" route="route1_4_3" depart="28" departLane = "0" departSpeed="11.180000"/>
	<vehicle id="LS_130" type="car5" route="route0_2_3" depart="29" departLane = "2" departSpeed="11.180000"/>
	<vehicle id="RL_131" type="car6" route="route0_4_3" depart="29" departLane = "0" departSpeed="11.180000"/>
	<vehicle id="SL_132" type="car9" route="route1_3_1" depart="29" departLane = "1" departSpeed="11.180000"/>
	<vehicle id="LL_133" type="car7" route="route1_4_1" depart="29" departLane = "2" departSpeed="11.180000"/>
	<vehicle id="RX_134" type="car7" route="route0_1_4" depart="30" departLane = "0" departSpeed="11.180000"/>
	<vehicle id="LS_135" type="car5" route="route0_2_3" depart="30" departLane = "2" departSpeed="11.180000"/>
	<vehicle id="RR_136" type="car8" route="route0_4_3" depart="30" departLane = "0" departSpeed="11.180000"/>
	<vehicle id="LX_137" type="car7" route="route1_2_3" depart="30" departLane = "2" departSpeed="11.180000"/>
	<vehicle id="LX_138" type="car5" route="route1_3_4" depart="30" departLane = "2" departSpeed="11.180000"/>
	<vehicle id="SX_139" type="car8" route="route1_4_2" depart="30" departLane = "1" departSpeed="11.180000"/>
	<vehicle id="SL_140" type="car7" route="route0_1_3" depart="31" departLane = "1" departSpeed="11.180000"/>
	<vehicle id="RX_141" type="car6" route="route0_2_1" depart="31" departLane = "0" departSpeed="11.180000"/>
	<vehicle id="SX_142" type="car8" route="route1_2_4" depart="31" departLane = "1" departSpeed="11.180000"/>
	<vehicle id="SS_143" type="car5" route="route0_1_3" depart="32" departLane = "1" departSpeed="11.180000"/>
	<vehicle id="RX_144" type="car6" route="route0_2_1" depart="32" departLane = "0" departSpeed="11.180000"/>
	<vehicle id="LX_145" type="car5" route="route0_4_1" depart="32" departLane = "2" departSpeed="11.180000"/>
	<vehicle id="SX_146" type="car9" route="route1_2_4" depart="32" departLane = "1" departSpeed="11.180000"/>
	<vehicle id="LX_147" type="car8" route="route1_3_4" depart="32" departLane = "2" departSpeed="11.180000"/>
	<vehicle id="LX_148" type="car6" route="route0_1_2" depart="33" departLane = "2" departSpeed="11.180000"/>
	<vehicle id="RX_149" type="car7" route="route0_2_1" depart="33" departLane = "0" departSpeed="11.180000"/>
	<vehicle id="RS_150" type="car7" route="route0_4_3" depart="33" departLane = "0" departSpeed="11.180000"/>
	<vehicle id="LX_151" type="car6" route="route1_2_3" depart="33" departLane = "2" departSpeed="11.180000"/>
	<vehicle id="LX_152" type="car7" route="route1_3_4" depart="33" departLane = "2" departSpeed="11.180000"/>
	<vehicle id="LS_153" type="car5" route="route1_4_1" depart="33" departLane = "2" departSpeed="11.180000"/>
	<vehicle id="LR_154" type="car6" route="route0_2_3" depart="34" departLane = "2" departSpeed="11.180000"/>
	<vehicle id="SX_155" type="car8" route="route0_4_2" depart="34" departLane = "1" departSpeed="11.180000"/>
	<vehicle id="LX_156" type="car5" route="route1_2_3" depart="34" departLane = "2" departSpeed="11.180000"/>
	<vehicle id="LL_157" type="car9" route="route1_4_1" depart="34" departLane = "2" departSpeed="11.180000"/>
	<vehicle id="RX_158" type="car6" route="route0_1_4" depart="35" departLane = "0" departSpeed="11.180000"/>
	<vehicle id="SX_159" type="car7" route="route0_2_4" depart="35" departLane = "1" departSpeed="11.180000"/>
	<vehicle id="SX_160" type="car6" route="route0_4_2" depart="35" departLane = "1" departSpeed="11.180000"/>
	<vehicle id="RR_161" type="car9" route="route1_2_1" depart="35" departLane = "0" departSpeed="11.180000"/>
	<vehicle id="LS_162" type="car8" route="route1_4_1" depart="35" departLane = "2" departSpeed="11.180000"/>
	<vehicle id="LX_163" type="car8" route="route0_1_2" depart="36" departLane = "2" departSpeed="11.180000"/>
	<vehicle id="LX_164" type="car7" route="route0_4_1" depart="36" departLane = "2" departSpeed="11.180000"/>
	<vehicle id="RX_165" type="car6" route="route1_4_3" depart="36" departLane = "0" departSpeed="11.180000"/>
	<vehicle id="LX_166" type="car6" route="route0_1_2" depart="37" departLane = "2" departSpeed="11.180000"/>
	<vehicle id="SX_167" type="car7" route="route0_2_4" depart="37" departLane = "1" departSpeed="11.180000"/>
	<vehicle id="SX_168" type="car6" route="route1_2_4" depart="37" departLane = "1" departSpeed="11.180000"/>
	<vehicle id="RX_169" type="car6" route="route1_4_3" depart="37" departLane = "0" departSpeed="11.180000"/>
	<vehicle id="SX_170" type="car8" route="route0_2_4" depart="38" departLane = "1" departSpeed="11.180000"/>
	<vehicle id="RL_171" type="car5" route="route0_4_3" depart="38" departLane = "0" departSpeed="11.180000"/>
	<vehicle id="RL_172" type="car5" route="route1_2_1" depart="38" departLane = "0" departSpeed="11.180000"/>
	<vehicle id="RX_173" type="car6" route="route1_3_2" depart="38" departLane = "0" departSpeed="11.180000"/>
	<vehicle id="RX_174" type="car5" route="route1_4_3" depart="38" departLane = "0" departSpeed="11.180000"/>
	<vehicle id="LX_175" type="car8" route="route0_1_2" depart="39" departLane = "2" departSpeed="11.180000"/>
	<vehicle id="RX_176" type="car6" route="route0_2_1" depart="39" departLane = "0" departSpeed="11.180000"/>
	<vehicle id="RX_177" type="car7" route="route1_3_2" depart="39" departLane = "0" departSpeed="11.180000"/>
	<vehicle id="LL_178" type="car9" route="route1_4_1" depart="39" departLane = "2" departSpeed="11.180000"/>
	<vehicle id="SL_179" type="car9" route="route0_1_3" depart="40" departLane = "1" departSpeed="11.180000"/>
	<vehicle id="LS_180" type="car9" route="route0_2_3" depart="40" departLane = "2" departSpeed="11.180000"/>
	<vehicle id="SX_181" type="car5" route="route0_4_2" depart="40" departLane = "1" departSpeed="11.180000"/>
	<vehicle id="SX_182" type="car6" route="route1_2_4" depart="40" departLane = "1" departSpeed="11.180000"/>
	<vehicle id="LX_183" type="car9" route="route1_3_4" depart="40" departLane = "2" departSpeed="11.180000"/>
	<vehicle id="SX_184" type="car8" route="route1_4_2" depart="40" departLane = "1" departSpeed="11.180000"/>
	<vehicle id="RL_185" type="car6" route="route0_4_3" depart="41" departLane = "0" departSpeed="11.180000"/>
	<vehicle id="SL_186" type="car5" route="route1_3_1" depart="41" departLane = "1" departSpeed="11.180000"/>
	<vehicle id="RX_187" type="car7" route="route1_4_3" depart="41" departLane = "0" departSpeed="11.180000"/>
	<vehicle id="SS_188" type="car7" route="route0_1_3" depart="42" departLane = "1" departSpeed="11.180000"/>
	<vehicle id="LL_189" type="car8" route="route0_2_3" depart="42" departLane = "2" departSpeed="11.180000"/>
	<vehicle id="SS_190" type="car8" route="route1_3_1" depart="42" departLane = "1" departSpeed="11.180000"/>
	<vehicle id="RX_191" type="car8" route="route1_4_3" depart="42" departLane = "0" departSpeed="11.180000"/>
	<vehicle id="RX_192" type="car6" route="route0_1_4" depart="43" departLane = "0" departSpeed="11.180000"/>
	<vehicle id="RX_193" type="car7" route="route0_2_1" depart="43" departLane = "0" departSpeed="11.180000"/>
	<vehicle id="RL_194" type="car5" route="route0_4_3" depart="43" departLane = "0" departSpeed="11.180000"/>
	<vehicle id="SX_195" type="car6" route="route1_2_4" depart="43" departLane = "1" departSpeed="11.180000"/>
	<vehicle id="SR_196" type="car9" route="route1_3_1" depart="43" departLane = "1" departSpeed="11.180000"/>
	<vehicle id="LL_197" type="car6" route="route1_4_1" depart="43" departLane = "2" departSpeed="11.180000"/>
	<vehicle id="LL_198" type="car5" route="route0_2_3" depart="44" departLane = "2" departSpeed="11.180000"/>
	<vehicle id="RR_199" type="car8" route="route0_4_3" depart="44" departLane = "0" departSpeed="11.180000"/>
	<vehicle id="RL_200" type="car5" route="route1_2_1" depart="44" departLane = "0" departSpeed="11.180000"/>
	<vehicle id="SL_201" type="car6" route="route1_3_1" depart="44" departLane = "1" departSpeed="11.180000"/>
	<vehicle id="SX_202" type="car9" route="route1_4_2" depart="44" departLane = "1" departSpeed="11.180000"/>
	<vehicle id="RX_203" type="car7" route="route0_1_4" depart="45" departLane = "0" departSpeed="11.180000"/>
	<vehicle id="RX_204" type="car9" route="route0_2_1" depart="45" departLane = "0" departSpeed="11.180000"/>
	<vehicle id="SX_205" type="car6" route="route0_4_2" depart="45" departLane = "1" departSpeed="11.180000"/>
	<vehicle id="RL_206" type="car8" route="route1_2_1" depart="45" departLane = "0" departSpeed="11.180000"/>
	<vehicle id="RX_207" type="car5" route="route1_3_2" depart="45" departLane = "0" departSpeed="11.180000"/>
	<vehicle id="RX_208" type="car8" route="route1_4_3" depart="45" departLane = "0" departSpeed="11.180000"/>
	<vehicle id="RX_209" type="car7" route="route0_1_4" depart="46" departLane = "0" departSpeed="11.180000"/>
	<vehicle id="SX_210" type="car9" route="route0_2_4" depart="46" departLane = "1" departSpeed="11.180000"/>
	<vehicle id="RL_211" type="car6" route="route0_4_3" depart="46" departLane = "0" departSpeed="11.180000"/>
	<vehicle id="RX_212" type="car7" route="route1_3_2" depart="46" departLane = "0" departSpeed="11.180000"/>
	<vehicle id="SX_213" type="car5" route="route0_2_4" depart="47" departLane = "1" departSpeed="11.180000"/>
	<vehicle id="LX_214" type="car6" route="route0_4_1" depart="47" departLane = "2" departSpeed="11.180000"/>
	<vehicle id="SX_215" type="car8" route="route1_2_4" depart="47" departLane = "1" departSpeed="11.180000"/>
	<vehicle id="LX_216" type="car6" route="route1_3_4" depart="47" departLane = "2" departSpeed="11.180000"/>
	<vehicle id="RX_217" type="car5" route="route1_4_3" depart="47" departLane = "0" departSpeed="11.180000"/>
	<vehicle id="SX_218" type="car7" route="route0_4_2" depart="48" departLane = "1" departSpeed="11.180000"/>
	<vehicle id="SX_219" type="car9" route="route1_4_2" depart="48" departLane = "1" departSpeed="11.180000"/>
	<vehicle id="SX_220" type="car9" route="route0_2_4" depart="49" departLane = "1" departSpeed="11.180000"/>
	<vehicle id="SX_221" type="car8" route="route0_4_2" depart="49" departLane = "1" departSpeed="11.180000"/>
	<vehicle id="LX_222" type="car5" route="route1_2_3" depart="49" departLane = "2" departSpeed="11.180000"/>
	<vehicle id="RX_223" type="car9" route="route1_3_2" depart="49" departLane = "0" departSpeed="11.180000"/>
	<vehicle id="LS_224" type="car5" route="route1_4_1" depart="49" departLane = "2" departSpeed="11.180000"/>
	<vehicle id="LL_225" type="car5" route="route0_2_3" depart="50" departLane = "2" departSpeed="11.180000"/>
	<vehicle id="RR_226" type="car6" route="route0_4_3" depart="50" departLane = "0" departSpeed="11.180000"/>
	<vehicle id="RR_227" type="car5" route="route1_2_1" depart="50" departLane = "0" departSpeed="11.180000"/>
	<vehicle id="RX_228" type="car8" route="route1_3_2" depart="50" departLane = "0" departSpeed="11.180000"/>
	<vehicle id="LL_229" type="car5" route="route1_4_1" depart="50" departLane = "2" departSpeed="11.180000"/>
	<vehicle id="SL_230" type="car7" route="route0_1_3" depart="51" departLane = "1" departSpeed="11.180000"/>
	<vehicle id="LL_231" type="car5" route="route0_2_3" depart="51" departLane = "2" departSpeed="11.180000"/>
	<vehicle id="RL_232" type="car5" route="route0_4_3" depart="51" departLane = "0" departSpeed="11.180000"/>
	<vehicle id="RL_233" type="car5" route="route1_2_1" depart="51" departLane = "0" departSpeed="11.180000"/>
	<vehicle id="LX_234" type="car6" route="route1_3_4" depart="51" departLane = "2" departSpeed="11.180000"/>
	<vehicle id="LR_235" type="car6" route="route1_4_1" depart="51" departLane = "2" departSpeed="11.180000"/>
	<vehicle id="LS_236" type="car6" route="route0_2_3" depart="52" departLane = "2" departSpeed="11.180000"/>
	<vehicle id="SX_237" type="car6" route="route0_4_2" depart="52" departLane = "1" departSpeed="11.180000"/>
	<vehicle id="RR_238" type="car5" route="route1_2_1" depart="52" departLane = "0" departSpeed="11.180000"/>
	<vehicle id="LX_239" type="car7" route="route1_3_4" depart="52" departLane = "2" departSpeed="11.180000"/>
	<vehicle id="LL_240" type="car5" route="route1_4_1" depart="52" departLane = "2" departSpeed="11.180000"/>
	<vehicle id="LL_241" type="car6" route="route0_2_3" depart="53" departLane = "2" departSpeed="11.180000"/>
	<vehicle id="SX_242" type="car5" route="route0_4_2" depart="53" departLane = "1" departSpeed="11.180000"/>
	<vehicle id="RR_243" type="car7" route="route1_2_1" depart="53" departLane = "0" departSpeed="11.180000"/>
	<vehicle id="LX_244" type="car6" route="route1_3_4" depart="53" departLane = "2" departSpeed="11.180000"/>
	<vehicle id="SX_245" type="car8" route="route1_4_2" depart="53" departLane = "1" departSpeed="11.180000"/>
	<vehicle id="LR_246" type="car9" route="route0_2_3" depart="54" departLane = "2" departSpeed="11.180000"/>
	<vehicle id="LX_247" type="car6" route="route0_4_1" depart="54" departLane = "2" departSpeed="11.180000"/>
	<vehicle id="RR_248" type="car5" route="route1_2_1" depart="54" departLane = "0" departSpeed="11.180000"/>
	<vehicle id="RX_249" type="car9" route="route1_3_2" depart="54" departLane = "0" departSpeed="11.180000"/>
	<vehicle id="LS_250" type="car8" route="route1_4_1" depart="54" departLane = "2" departSpeed="11.180000"/>
	<vehicle id="SX_251" type="car6" route="route1_2_4" depart="55" departLane = "1" departSpeed="11.180000"/>
	<vehicle id="LX_252" type="car6" route="route1_3_4" depart="55" departLane = "2" departSpeed="11.180000"/>
	<vehicle id="SX_253" type="car8" route="route1_4_2" depart="55" departLane = "1" departSpeed="11.180000"/>
	<vehicle id="LX_254" type="car6" route="route0_1_2" depart="56" departLane = "2" departSpeed="11.180000"/>
	<vehicle id="SX_255" type="car8" route="route0_2_4" depart="56" departLane = "1" departSpeed="11.180000"/>
	<vehicle id="LX_256" type="car5" route="route0_4_1" depart="56" departLane = "2" departSpeed="11.180000"/>
	<vehicle id="RL_257" type="car7" route="route1_2_1" depart="56" departLane = "0" departSpeed="11.180000"/>
	<vehicle id="SL_258" type="car6" route="route1_3_1" depart="56" departLane = "1" departSpeed="11.180000"/>
	<vehicle id="SX_259" type="car7" route="route1_4_2" depart="56" departLane = "1" departSpeed="11.180000"/>
	<vehicle id="RX_260" type="car5" route="route0_1_4" depart="57" departLane = "0" departSpeed="11.180000"/>