<routes>

	<vType id="car5" accel="100.0" decel="100.0" sigma="0.0" length="5" minGap="3.000000" maxSpeed="11.180000" tau="0.100000" carFollowModel="CACC" color="255,255,255"/>
	<vType id="car6" accel="100.0" decel="100.0" sigma="0.0" length="6" minGap="3.000000" maxSpeed="11.180000" tau="0.100000" carFollowModel="CACC" color="255,255,255"/>
	<vType id="car7" accel="100.0" decel="100.0" sigma="0.0" length="7" minGap="3.000000" maxSpeed="11.180000" tau="0.100000" carFollowModel="CACC" color="255,255,255"/>
	<vType id="car8" accel="100.0" decel="100.0" sigma="0.0" length="8" minGap="3.000000" maxSpeed="11.180000" tau="0.100000" carFollowModel="CACC" color="255,255,255"/>
	<vType id="car9" accel="100.0" decel="100.0" sigma="0.0" length="9" minGap="3.000000" maxSpeed="11.180000" tau="0.100000" carFollowModel="CACC" color="255,255,255"/>

	<route id="route1_2" edges=" 1 -2"/>
	<route id="route1_3" edges=" 1 -3"/>
	<route id="route1_4" edges=" 1 -4"/>
	<route id="route2_1" edges=" 2 -1"/>
	<route id="route2_3" edges=" 2 -3"/>
	<route id="route2_4" edges=" 2 -4"/>
	<route id="route3_1" edges=" 3 -1"/>
	<route id="route3_2" edges=" 3 -2"/>
	<route id="route3_4" edges=" 3 -4"/>
	<route id="route4_1" edges=" 4 -1"/>
	<route id="route4_2" edges=" 4 -2"/>
	<route id="route4_3" edges=" 4 -3"/>

	<vehicle id="S_0" type="car8" route="route1_3" depart="0" departLane = "2" departSpeed="11.180000"/>
	<vehicle id="R_1" type="car7" route="route2_1" depart="0" departLane = "1" departSpeed="11.180000"/>
	<vehicle id="L_2" type="car9" route="route1_2" depart="1" departLane = "0" departSpeed="11.180000"/>
	<vehicle id="L_3" type="car8" route="route4_1" depart="1" departLane = "1" departSpeed="11.180000"/>
	<vehicle id="L_4" type="car9" route="route1_2" depart="2" departLane = "2" departSpeed="11.180000"/>
	<vehicle id="L_5" type="car7" route="route2_3" depart="2" departLane = "0" departSpeed="11.180000"/>
	<vehicle id="L_6" type="car5" route="route1_2" depart="3" departLane = "1" departSpeed="11.180000"/>
	<vehicle id="S_7" type="car7" route="route2_4" depart="3" departLane = "1" departSpeed="11.180000"/>
	<vehicle id="S_8" type="car6" route="route3_1" depart="3" departLane = "0" departSpeed="11.180000"/>
	<vehicle id="S_9" type="car9" route="route1_3" depart="4" departLane = "0" departSpeed="11.180000"/>
	<vehicle id="S_10" type="car9" route="route4_2" depart="4" departLane = "2" departSpeed="11.180000"/>
	<vehicle id="R_11" type="car8" route="route1_4" depart="5" departLane = "0" departSpeed="11.180000"/>
	<vehicle id="L_12" type="car8" route="route1_2" depart="8" departLane = "0" departSpeed="11.180000"/>
	<vehicle id="R_13" type="car8" route="route3_2" depart="8" departLane = "1" departSpeed="11.180000"/>
	<vehicle id="L_14" type="car8" route="route4_1" depart="10" departLane = "0" departSpeed="11.180000"/>
	<vehicle id="R_15" type="car9" route="route4_3" depart="11" departLane = "1" departSpeed="11.180000"/>
	<vehicle id="S_16" type="car9" route="route4_2" depart="12" departLane = "1" departSpeed="11.180000"/>
	<vehicle id="S_17" type="car9" route="route3_1" depart="13" departLane = "1" departSpeed="11.180000"/>
	<vehicle id="L_18" type="car9" route="route4_1" depart="13" departLane = "2" departSpeed="11.180000"/>
	<vehicle id="L_19" type="car7" route="route3_4" depart="15" departLane = "2" departSpeed="11.180000"/>
	<vehicle id="R_20" type="car7" route="route4_3" depart="15" departLane = "1" departSpeed="11.180000"/>
	<vehicle id="R_21" type="car5" route="route3_2" depart="17" departLane = "0" departSpeed="11.180000"/>
	<vehicle id="L_22" type="car8" route="route1_2" depart="19" departLane = "2" departSpeed="11.180000"/>
	<vehicle id="R_23" type="car5" route="route2_1" depart="19" departLane = "0" departSpeed="11.180000"/>
	<vehicle id="R_24" type="car8" route="route4_3" depart="19" departLane = "0" departSpeed="11.180000"/>
	<vehicle id="R_25" type="car7" route="route2_1" depart="20" departLane = "0" departSpeed="11.180000"/>
	<vehicle id="L_26" type="car8" route="route3_4" depart="20" departLane = "0" departSpeed="11.180000"/>
	<vehicle id="L_27" type="car7" route="route3_4" depart="21" departLane = "1" departSpeed="11.180000"/>
	<vehicle id="L_28" type="car9" route="route4_1" depart="21" departLane = "0" departSpeed="11.180000"/>
	<vehicle id="R_29" type="car9" route="route2_1" depart="22" departLane = "1" departSpeed="11.180000"/>
	<vehicle id="L_30" type="car5" route="route3_4" depart="22" departLane = "0" departSpeed="11.180000"/>
	<vehicle id="S_31" type="car8" route="route1_3" depart="23" departLane = "2" departSpeed="11.180000"/>
	<vehicle id="R_32" type="car8" route="route3_2" depart="23" departLane = "2" departSpeed="11.180000"/>
	<vehicle id="S_33" type="car6" route="route1_3" depart="24" departLane = "1" departSpeed="11.180000"/>
	<vehicle id="R_34" type="car9" route="route1_4" depart="25" departLane = "0" departSpeed="11.180000"/>
	<vehicle id="L_35" type="car9" route="route1_2" depart="27" departLane = "0" departSpeed="11.180000"/>
	<vehicle id="R_36" type="car9" route="route2_1" depart="27" departLane = "2" departSpeed="11.180000"/>
	<vehicle id="R_37" type="car9" route="route4_3" depart="27" departLane = "2" departSpeed="11.180000"/>
	<vehicle id="L_38" type="car7" route="route1_2" depart="29" departLane = "2" departSpeed="11.180000"/>
	<vehicle id="R_39" type="car8" route="route2_1" depart="29" departLane = "0" departSpeed="11.180000"/>
	<vehicle id="R_40" type="car6" route="route3_2" depart="29" departLane = "1" departSpeed="11.180000"/>
	<vehicle id="R_41" type="car6" route="route2_1" depart="30" departLane = "0" departSpeed="11.180000"/>
	<vehicle id="L_42" type="car9" route="route2_3" depart="31" departLane = "2" departSpeed="11.180000"/>
	<vehicle id="R_43" type="car5" route="route1_4" depart="33" departLane = "2" departSpeed="11.180000"/>
	<vehicle id="L_44" type="car6" route="route2_3" depart="33" departLane = "2" departSpeed="11.180000"/>
	<vehicle id="S_45" type="car8" route="route4_2" depart="34" departLane = "2" departSpeed="11.180000"/>
	<vehicle id="R_46" type="car5" route="route3_2" depart="35" departLane = "1" departSpeed="11.180000"/>
	<vehicle id="L_47" type="car9" route="route4_1" depart="35" departLane = "0" departSpeed="11.180000"/>
	<vehicle id="L_48" type="car6" route="route4_1" depart="37" departLane = "0" departSpeed="11.180000"/>
	<vehicle id="L_49" type="car9" route="route1_2" depart="39" departLane = "2" departSpeed="11.180000"/>
	<vehicle id="L_50" type="car5" route="route2_3" depart="39" departLane = "2" departSpeed="11.180000"/>
	<vehicle id="R_51" type="car5" route="route3_2" depart="39" departLane = "2" departSpeed="11.180000"/>
	<vehicle id="L_52" type="car7" route="route4_1" depart="39" departLane = "2" departSpeed="11.180000"/>
	<vehicle id="L_53" type="car6" route="route1_2" depart="40" departLane = "0" departSpeed="11.180000"/>
	<vehicle id="S_54" type="car6" route="route3_1" depart="40" departLane = "2" departSpeed="11.180000"/>
	<vehicle id="L_55" type="car7" route="route2_3" depart="41" departLane = "0" departSpeed="11.180000"/>
	<vehicle id="S_56" type="car5" route="route3_1" depart="41" departLane = "1" departSpeed="11.180000"/>
	<vehicle id="L_57" type="car6" route="route4_1" depart="41" departLane = "2" departSpeed="11.180000"/>
	<vehicle id="S_58" type="car9" route="route4_2" depart="42" departLane = "2" departSpeed="11.180000"/>
	<vehicle id="R_59" type="car8" route="route2_1" depart="43" departLane = "0" departSpeed="11.180000"/>
	<vehicle id="L_60" type="car6" route="route3_4" depart="44" departLane = "1" departSpeed="11.180000"/>
	<vehicle id="S_61" type="car6" route="route4_2" depart="44" departLane = "0" departSpeed="11.180000"/>
	<vehicle id="R_62" type="car6" route="route1_4" depart="49" departLane = "0" departSpeed="11.180000"/>
	<vehicle id="S_63" type="car5" route="route2_4" depart="49" departLane = "1" departSpeed="11.180000"/>
	<vehicle id="L_64" type="car6" route="route3_4" depart="49" departLane = "1" departSpeed="11.180000"/>
	<vehicle id="S_65" type="car8" route="route3_1" depart="50" departLane = "1" departSpeed="11.180000"/>
	<vehicle id="S_66" type="car5" route="route4_2" depart="50" departLane = "2" departSpeed="11.180000"/>
	<vehicle id="S_67" type="car9" route="route1_3" depart="52" departLane = "1" departSpeed="11.180000"/>
	<vehicle id="R_68" type="car5" route="route2_1" depart="52" departLane = "2" departSpeed="11.180000"/>
	<vehicle id="S_69" type="car9" route="route4_2" depart="52" departLane = "0" departSpeed="11.180000"/>
	<vehicle id="R_70" type="car5" route="route2_1" depart="54" departLane = "1" departSpeed="11.180000"/>
	<vehicle id="L_71" type="car9" route="route1_2" depart="55" departLane = "0" departSpeed="11.180000"/>
	<vehicle id="L_72" type="car8" route="route1_2" depart="57" departLane = "0" departSpeed="11.180000"/>
	<vehicle id="R_73" type="car5" route="route4_3" depart="57" departLane = "1" departSpeed="11.180000"/>
	<vehicle id="S_74" type="car9" route="route1_3" depart="58" departLane = "0" departSpeed="11.180000"/>
	<vehicle id="L_75" type="car7" route="route1_2" depart="59" departLane = "0" departSpeed="11.180000"/>
	<vehicle id="R_76" type="car7" route="route3_2" depart="60" departLane = "1" departSpeed="11.180000"/>
	<vehicle id="S_77" type="car7" route="route4_2" depart="60" departLane = "1" departSpeed="11.180000"/>
	<vehicle id="R_78" type="car5" route="route3_2" depart="61" departLane = "1" departSpeed="11.180000"/>
	<vehicle id="R_79" type="car9" route="route4_3" depart="61" departLane = "1" departSpeed="11.180000"/>
	<vehicle id="R_80" type="car9" route="route1_4" depart="62" departLane = "2" departSpeed="11.180000"/>
	<vehicle id="S_81" type="car6" route="route1_3" depart="65" departLane = "0" departSpeed="11.180000"/>
	<vehicle id="R_82" type="car8" route="route4_3" depart="65" departLane = "2" departSpeed="11.180000"/>
	<vehicle id="S_83" type="car5" route="route3_1" depart="66" departLane = "2" departSpeed="11.180000"/>
	<vehicle id="L_84" type="car9" route="route3_4" depart="67" departLane = "2" departSpeed="11.180000"/>
	<vehicle id="R_85" type="car9" route="route4_3" depart="67" departLane = "2" departSpeed="11.180000"/>
	<vehicle id="S_86" type="car5" route="route1_3" depart="70" departLane = "0" departSpeed="11.180000"/>
	<vehicle id="R_87" type="car7" route="route4_3" depart="70" departLane = "1" departSpeed="11.180000"/>
	<vehicle id="S_88" type="car6" route="route1_3" depart="71" departLane = "0" departSpeed="11.180000"/>
	<vehicle id="S_89" type="car7" route="route3_1" depart="71" departLane = "0" departSpeed="11.180000"/>
	<vehicle id="L_90" type="car8" route="route4_1" depart="71" departLane = "1" departSpeed="11.180000"/>
	<vehicle id="R_91" type="car7" route="route2_1" depart="72" departLane = "0" departSpeed="11.180000"/>
	<vehicle id="S_92" type="car6" route="route3_1" depart="72" departLane = "1" departSpeed="11.180000"/>
	<vehicle id="S_93" type="car9" route="route2_4" depart="75" departLane = "0" departSpeed="11.180000"/>
	<vehicle id="S_94" type="car7" route="route3_1" depart="75" departLane = "2" departSpeed="11.180000"/>
	<vehicle id="L_95" type="car7" route="route3_4" depart="76" departLane = "1" departSpeed="11.180000"/>
	<vehicle id="R_96" type="car7" route="route4_3" depart="77" departLane = "1" departSpeed="11.180000"/>
	<vehicle id="S_97" type="car6" route="route4_2" depart="79" departLane = "0" departSpeed="11.180000"/>
	<vehicle id="L_98" type="car7" route="route4_1" depart="82" departLane = "1" departSpeed="11.180000"/>
	<vehicle id="S_99" type="car7" route="route2_4" depart="83" departLane = "1" departSpeed="11.180000"/>
	<vehicle id="L_100" type="car9" route="route4_1" depart="88" departLane = "2" departSpeed="11.180000"/>
	<vehicle id="S_101" type="car7" route="route2_4" depart="89" departLane = "2" departSpeed="11.180000"/>
	<vehicle id="R_102" type="car8" route="route4_3" depart="89" departLane = "1" departSpeed="11.180000"/>
	<vehicle id="S_103" type="car9" route="route4_2" depart="90" departLane = "1" departSpeed="11.180000"/>
	<vehicle id="R_104" type="car9" route="route1_4" depart="92" departLane = "0" departSpeed="11.180000"/>
	<vehicle id="S_105" type="car9" route="route2_4" depart="92" departLane = "0" departSpeed="11.180000"/>
	<vehicle id="L_106" type="car8" route="route3_4" depart="93" departLane = "1" departSpeed="11.180000"/>
	<vehicle id="R_107" type="car6" route="route1_4" depart="94" departLane = "1" departSpeed="11.180000"/>
	<vehicle id="R_108" type="car9" route="route3_2" depart="94" departLane = "2" departSpeed="11.180000"/>
	<vehicle id="R_109" type="car8" route="route1_4" depart="95" departLane = "2" departSpeed="11.180000"/>
	<vehicle id="L_110" type="car8" route="route3_4" depart="95" departLane = "2" departSpeed="11.180000"/>
	<vehicle id="L_111" type="car5" route="route4_1" depart="96" departLane = "1" departSpeed="11.180000"/>
	<vehicle id="R_112" type="car5" route="route2_1" depart="98" departLane = "1" departSpeed="11.180000"/>
	<vehicle id="R_113" type="car6" route="route3_2" depart="98" departLane = "2" departSpeed="11.180000"/>
	<vehicle id="L_114" type="car8" route="route1_2" depart="99" departLane = "2" departSpeed="11.180000"/>
	<vehicle id="R_115" type="car7" route="route3_2" depart="99" departLane = "1" departSpeed="11.180000"/>
	<vehicle id="R_116" type="car5" route="route4_3" depart="99" departLane = "0" departSpeed="11.180000"/>
	<vehicle id="R_117" type="car8" route="route3_2" depart="100" departLane = "0" departSpeed="11.180000"/>
	<vehicle id="R_118" type="car5" route="route1_4" depart="102" departLane = "2" departSpeed="11.180000"/>
	<vehicle id="L_119" type="car9" route="route1_2" depart="103" departLane = "0" departSpeed="11.180000"/>
	<vehicle id="L_120" type="car6" route="route4_1" depart="103" departLane = "2" departSpeed="11.180000"/>
	<vehicle id="L_121" type="car9" route="route4_1" depart="104" departLane = "2" departSpeed="11.180000"/>
	<vehicle id="L_122" type="car5" route="route4_1" depart="106" departLane = "2" departSpeed="11.180000"/>
	<vehicle id="L_123" type="car5" route="route1_2" depart="107" departLane = "1" departSpeed="11.180000"/>
	<vehicle id="R_124" type="car9" route="route3_2" depart="107" departLane = "1" departSpeed="11.180000"/>
	<vehicle id="S_125" type="car9" route="route1_3" depart="108" departLane = "0" departSpeed="11.180000"/>
	<vehicle id="S_126" type="car5" route="route2_4" depart="108" departLane = "0" departSpeed="11.180000"/>
	<vehicle id="R_127" type="car8" route="route3_2" depart="108" departLane = "0" departSpeed="11.180000"/>
	<vehicle id="L_128" type="car9" route="route4_1" depart="110" departLane = "0" departSpeed="11.180000"/>
	<vehicle id="L_129" type="car7" route="route2_3" depart="112" departLane = "1" departSpeed="11.180000"/>
	<vehicle id="S_130" type="car7" route="route3_1" depart="112" departLane = "2" departSpeed="11.180000"/>
	<vehicle id="R_131" type="car5" route="route1_4" depart="114" departLane = "2" departSpeed="11.180000"/>
	<vehicle id="S_132" type="car9" route="route1_3" depart="115" departLane = "0" departSpeed="11.180000"/>
	<vehicle id="L_133" type="car7" route="route1_2" depart="116" departLane = "1" departSpeed="11.180000"/>
	<vehicle id="R_134" type="car8" route="route2_1" depart="116" departLane = "1" departSpeed="11.180000"/>
	<vehicle id="L_135" type="car5" route="route4_1" depart="116" departLane = "1" departSpeed="11.180000"/>
	<vehicle id="R_136" type="car6" route="route2_1" depart="117" departLane = "0" departSpeed="11.180000"/>
	<vehicle id="S_137" type="car9" route="route1_3" depart="118" departLane = "2" departSpeed="11.180000"/>
	<vehicle id="R_138" type="car6" route="route1_4" depart="119" departLane = "1" departSpeed="11.180000"/>
	<vehicle id="R_139" type="car7" route="route2_1" depart="120" departLane = "1" departSpeed="11.180000"/>
	<vehicle id="S_140" type="car6" route="route2_4" depart="122" departLane = "0" departSpeed="11.180000"/>
	<vehicle id="L_141" type="car7" route="route4_1" depart="122" departLane = "1" departSpeed="11.180000"/>
	<vehicle id="L_142" type="car8" route="route1_2" depart="123" departLane = "2" departSpeed="11.180000"/>
	<vehicle id="L_143" type="car6" route="route3_4" depart="123" departLane = "1" departSpeed="11.180000"/>
	<vehicle id="L_144" type="car6" route="route3_4" depart="124" departLane = "2" departSpeed="11.180000"/>
	<vehicle id="L_145" type="car7" route="route1_2" depart="125" departLane = "2" departSpeed="11.180000"/>
	<vehicle id="L_146" type="car7" route="route1_2" depart="127" departLane = "1" departSpeed="11.180000"/>
	<vehicle id="R_147" type="car8" route="route1_4" depart="130" departLane = "0" departSpeed="11.180000"/>
	<vehicle id="S_148" type="car8" route="route4_2" depart="130" departLane = "1" departSpeed="11.180000"/>
	<vehicle id="L_149" type="car7" route="route1_2" depart="131" departLane = "0" departSpeed="11.180000"/>
	<vehicle id="L_150" type="car6" route="route2_3" depart="131" departLane = "0" departSpeed="11.180000"/>
	<vehicle id="R_151" type="car9" route="route1_4" depart="132" departLane = "0" departSpeed="11.180000"/>
	<vehicle id="S_152" type="car5" route="route3_1" depart="132" departLane = "2" departSpeed="11.180000"/>
	<vehicle id="L_153" type="car7" route="route3_4" depart="133" departLane = "2" departSpeed="11.180000"/>
	<vehicle id="L_154" type="car8" route="route2_3" depart="136" departLane = "0" departSpeed="11.180000"/>
	<vehicle id="R_155" type="car7" route="route2_1" depart="138" departLane = "2" departSpeed="11.180000"/>
	<vehicle id="L_156" type="car8" route="route3_4" depart="138" departLane = "0" departSpeed="11.180000"/>
	<vehicle id="S_157" type="car6" route="route4_2" depart="138" departLane = "0" departSpeed="11.180000"/>
	<vehicle id="R_158" type="car9" route="route3_2" depart="143" departLane = "1" departSpeed="11.180000"/>
	<vehicle id="R_159" type="car7" route="route2_1" depart="148" departLane = "1" departSpeed="11.180000"/>
	<vehicle id="L_160" type="car6" route="route3_4" depart="148" departLane = "0" departSpeed="11.180000"/>
	<vehicle id="S_161" type="car6" route="route2_4" depart="149" departLane = "2" departSpeed="11.180000"/>
	<vehicle id="S_162" type="car9" route="route1_3" depart="152" departLane = "0" departSpeed="11.180000"/>
	<vehicle id="R_163" type="car6" route="route2_1" depart="152" departLane = "0" departSpeed="11.180000"/>
	<vehicle id="L_164" type="car9" route="route4_1" depart="153" departLane = "1" departSpeed="11.180000"/>
	<vehicle id="L_165" type="car7" route="route2_3" depart="155" departLane = "1" departSpeed="11.180000"/>
	<vehicle id="L_166" type="car6" route="route4_1" depart="155" departLane = "0" departSpeed="11.180000"/>
	<vehicle id="S_167" type="car8" route="route2_4" depart="157" departLane = "1" departSpeed="11.180000"/>
	<vehicle id="S_168" type="car9" route="route3_1" depart="157" departLane = "1" departSpeed="11.180000"/>
	<vehicle id="S_169" type="car5" route="route4_2" depart="157" departLane = "2" departSpeed="11.180000"/>
	<vehicle id="L_170" type="car7" route="route3_4" depart="158" departLane = "1" departSpeed="11.180000"/>
	<vehicle id="R_171" type="car9" route="route2_1" depart="159" departLane = "1" departSpeed="11.180000"/>
	<vehicle id="S_172" type="car6" route="route4_2" depart="159" departLane = "2" departSpeed="11.180000"/>
	<vehicle id="S_173" type="car8" route="route2_4" depart="160" departLane = "2" departSpeed="11.180000"/>
	<vehicle id="S_174" type="car7" route="route1_3" depart="161" departLane = "1" departSpeed="11.180000"/>
	<vehicle id="R_175" type="car8" route="route4_3" depart="161" departLane = "0" departSpeed="11.180000"/>
	<vehicle id="R_176" type="car7" route="route2_1" depart="162" departLane = "0" departSpeed="11.180000"/>
	<vehicle id="L_177" type="car6" route="route3_4" depart="163" departLane = "1" departSpeed="11.180000"/>
	<vehicle id="L_178" type="car6" route="route1_2" depart="164" departLane = "0" departSpeed="11.180000"/>
	<vehicle id="S_179" type="car8" route="route1_3" depart="165" departLane = "2" departSpeed="11.180000"/>
	<vehicle id="S_180" type="car8" route="route3_1" depart="165" departLane = "0" departSpeed="11.180000"/>
	<vehicle id="L_181" type="car6" route="route2_3" depart="167" departLane = "0" departSpeed="11.180000"/>
	<vehicle id="R_182" type="car8" route="route3_2" depart="167" departLane = "1" departSpeed="11.180000"/>
	<vehicle id="L_183" type="car7" route="route2_3" depart="168" departLane = "0" departSpeed="11.180000"/>
	<vehicle id="L_184" type="car6" route="route1_2" depart="169" departLane = "0" departSpeed="11.180000"/>
	<vehicle id="R_185" type="car8" route="route3_2" depart="169" departLane = "0" departSpeed="11.180000"/>
	<vehicle id="L_186" type="car5" route="route4_1" depart="170" departLane = "0" departSpeed="11.180000"/>
	<vehicle id="S_187" type="car8" route="route1_3" depart="171" departLane = "2" departSpeed="11.180000"/>
	<vehicle id="S_188" type="car8" route="route2_4" depart="171" departLane = "0" departSpeed="11.180000"/>
	<vehicle id="R_189" type="car6" route="route3_2" depart="171" departLane = "0" departSpeed="11.180000"/>
	<vehicle id="L_190" type="car5" route="route4_1" depart="171" departLane = "0" departSpeed="11.180000"/>
	<vehicle id="L_191" type="car6" route="route4_1" depart="172" departLane = "2" departSpeed="11.180000"/>
	<vehicle id="R_192" type="car5" route="route4_3" depart="177" departLane = "1" departSpeed="11.180000"/>
	<vehicle id="R_193" type="car7" route="route1_4" depart="178" departLane = "1" departSpeed="11.180000"/>
	<vehicle id="R_194" type="car7" route="route2_1" depart="178" departLane = "0" departSpeed="11.180000"/>
	<vehicle id="R_195" type="car8" route="route1_4" depart="179" departLane = "1" departSpeed="11.180000"/>
	<vehicle id="L_196" type="car8" route="route3_4" depart="180" departLane = "0" departSpeed="11.180000"/>
	<vehicle id="L_197" type="car5" route="route4_1" depart="180" departLane = "2" departSpeed="11.180000"/>
	<vehicle id="S_198" type="car9" route="route2_4" depart="181" departLane = "2" departSpeed="11.180000"/>
	<vehicle id="R_199" type="car6" route="route1_4" depart="182" departLane = "2" departSpeed="11.180000"/>
	<vehicle id="R_200" type="car6" route="route3_2" depart="182" departLane = "1" departSpeed="11.180000"/>
	<vehicle id="S_201" type="car9" route="route3_1" depart="183" departLane = "2" departSpeed="11.180000"/>
	<vehicle id="R_202" type="car5" route="route3_2" depart="186" departLane = "1" departSpeed="11.180000"/>
	<vehicle id="S_203" type="car5" route="route1_3" depart="187" departLane = "0" departSpeed="11.180000"/>
	<vehicle id="S_204" type="car6" route="route2_4" depart="187" departLane = "1" departSpeed="11.180000"/>
	<vehicle id="S_205" type="car9" route="route3_1" depart="187" departLane = "2" departSpeed="11.180000"/>
	<vehicle id="S_206" type="car6" route="route3_1" depart="188" departLane = "2" departSpeed="11.180000"/>
	<vehicle id="S_207" type="car9" route="route2_4" depart="189" departLane = "2" departSpeed="11.180000"/>
	<vehicle id="R_208" type="car6" route="route1_4" depart="191" departLane = "1" departSpeed="11.180000"/>
	<vehicle id="R_209" type="car7" route="route2_1" depart="191" departLane = "2" departSpeed="11.180000"/>
	<vehicle id="S_210" type="car9" route="route2_4" depart="192" departLane = "2" departSpeed="11.180000"/>
	<vehicle id="R_211" type="car7" route="route3_2" depart="192" departLane = "1" departSpeed="11.180000"/>
	<vehicle id="L_212" type="car6" route="route3_4" depart="193" departLane = "2" departSpeed="11.180000"/>
	<vehicle id="L_213" type="car5" route="route1_2" depart="194" departLane = "2" departSpeed="11.180000"/>
	<vehicle id="L_214" type="car7" route="route3_4" depart="196" departLane = "1" departSpeed="11.180000"/>
	<vehicle id="S_215" type="car5" route="route3_1" depart="197" departLane = "1" departSpeed="11.180000"/>
	<vehicle id="L_216" type="car5" route="route4_1" depart="197" departLane = "0" departSpeed="11.180000"/>
	<vehicle id="R_217" type="car9" route="route4_3" depart="198" departLane = "0" departSpeed="11.180000"/>
	<vehicle id="R_218" type="car8" route="route3_2" depart="199" departLane = "1" departSpeed="11.180000"/>
	<vehicle id="L_219" type="car9" route="route4_1" depart="200" departLane = "2" departSpeed="11.180000"/>
	<vehicle id="L_220" type="car9" route="route4_1" depart="201" departLane = "2" departSpeed="11.180000"/>
	<vehicle id="L_221" type="car7" route="route2_3" depart="202" departLane = "1" departSpeed="11.180000"/>
	<vehicle id="L_222" type="car5" route="route3_4" depart="204" departLane = "2" departSpeed="11.180000"/>
	<vehicle id="R_223" type="car9" route="route2_1" depart="206" departLane = "0" departSpeed="11.180000"/>
	<vehicle id="S_224" type="car7" route="route4_2" depart="206" departLane = "1" departSpeed="11.180000"/>
	<vehicle id="R_225" type="car6" route="route4_3" depart="208" departLane = "1" departSpeed="11.180000"/>
	<vehicle id="S_226" type="car6" route="route1_3" depart="209" departLane = "2" departSpeed="11.180000"/>
	<vehicle id="R_227" type="car9" route="route2_1" depart="209" departLane = "1" departSpeed="11.180000"/>
	<vehicle id="R_228" type="car6" route="route3_2" depart="210" departLane = "0" departSpeed="11.180000"/>
	<vehicle id="R_229" type="car5" route="route4_3" depart="210" departLane = "1" departSpeed="11.180000"/>
	<vehicle id="S_230" type="car5" route="route1_3" depart="211" departLane = "0" departSpeed="11.180000"/>
	<vehicle id="S_231" type="car9" route="route4_2" depart="211" departLane = "1" departSpeed="11.180000"/>
	<vehicle id="R_232" type="car5" route="route4_3" depart="212" departLane = "1" departSpeed="11.180000"/>
	<vehicle id="L_233" type="car6" route="route2_3" depart="213" departLane = "2" departSpeed="11.180000"/>
	<vehicle id="S_234" type="car5" route="route1_3" depart="214" departLane = "1" departSpeed="11.180000"/>
	<vehicle id="S_235" type="car6" route="route2_4" depart="214" departLane = "1" departSpeed="11.180000"/>
	<vehicle id="L_236" type="car6" route="route3_4" depart="215" departLane = "2" departSpeed="11.180000"/>
	<vehicle id="S_237" type="car6" route="route1_3" depart="216" departLane = "2" departSpeed="11.180000"/>
	<vehicle id="S_238" type="car7" route="route3_1" depart="216" departLane = "2" departSpeed="11.180000"/>
	<vehicle id="R_239" type="car9" route="route2_1" depart="217" departLane = "0" departSpeed="11.180000"/>
	<vehicle id="L_240" type="car8" route="route3_4" depart="218" departLane = "2" departSpeed="11.180000"/>
	<vehicle id="R_241" type="car7" route="route4_3" depart="218" departLane = "0" departSpeed="11.180000"/>
	<vehicle id="S_242" type="car8" route="route1_3" depart="219" departLane = "2" departSpeed="11.180000"/>
	<vehicle id="L_243" type="car6" route="route1_2" depart="220" departLane = "2" departSpeed="11.180000"/>
	<vehicle id="R_244" type="car6" route="route2_1" depart="220" departLane = "0" departSpeed="11.180000"/>
	<vehicle id="S_245" type="car8" route="route3_1" depart="221" departLane = "1" departSpeed="11.180000"/>
	<vehicle id="L_246" type="car9" route="route2_3" depart="223" departLane = "0" departSpeed="11.180000"/>
	<vehicle id="S_247" type="car7" route="route3_1" depart="223" departLane = "1" departSpeed="11.180000"/>
	<vehicle id="R_248" type="car9" route="route4_3" depart="223" departLane = "0" departSpeed="11.180000"/>
	<vehicle id="R_249" type="car5" route="route4_3" depart="224" departLane = "2" departSpeed="11.180000"/>
	<vehicle id="L_250" type="car7" route="route1_2" depart="226" departLane = "1" departSpeed="11.180000"/>
	<vehicle id="R_251" type="car9" route="route2_1" depart="226" departLane = "1" departSpeed="11.180000"/>
	<vehicle id="S_252" type="car7" route="route1_3" depart="227" departLane = "2" departSpeed="11.180000"/>
	<vehicle id="R_253" type="car9" route="route3_2" depart="227" departLane = "0" departSpeed="11.180000"/>
	<vehicle id="S_254" type="car7" route="route4_2" depart="227" departLane = "0" departSpeed="11.180000"/>
	<vehicle id="R_255" type="car9" route="route2_1" depart="232" departLane = "1" departSpeed="11.180000"/>
	<vehicle id="S_256" type="car8" route="route3_1" depart="232" departLane = "2" departSpeed="11.180000"/>
	<vehicle id="S_257" type="car5" route="route1_3" depart="234" departLane = "1" departSpeed="11.180000"/>
	<vehicle id="L_258" type="car6" route="route2_3" depart="237" departLane = "0" departSpeed="11.180000"/>
	<vehicle id="S_259" type="car5" route="route3_1" depart="237" departLane = "2" departSpeed="11.180000"/>
	<vehicle id="R_260" type="car7" route="route4_3" depart="237" departLane = "0" departSpeed="11.180000"/>
	<vehicle id="R_261" type="car8" route="route1_4" depart="239" departLane = "0" departSpeed="11.180000"/>
	<vehicle id="R_262" type="car7" route="route3_2" depart="239" departLane = "2" departSpeed="11.180000"/>
	<vehicle id="R_263" type="car9" route="route2_1" depart="240" departLane = "0" departSpeed="11.180000"/>
	<vehicle id="R_264" type="car6" route="route3_2" depart="240" departLane = "0" departSpeed="11.180000"/>
	<vehicle id="L_265" type="car6" route="route1_2" depart="241" departLane = "0" departSpeed="11.180000"/>
	<vehicle id="R_266" type="car9" route="route4_3" depart="242" departLane = "0" departSpeed="11.180000"/>
	<vehicle id="S_267" type="car6" route="route2_4" depart="243" departLane = "1" departSpeed="11.180000"/>
	<vehicle id="S_268" type="car8" route="route4_2" depart="243" departLane = "0" departSpeed="11.180000"/>
	<vehicle id="S_269" type="car8" route="route2_4" depart="244" departLane = "1" departSpeed="11.180000"/>
	<vehicle id="S_270" type="car5" route="route2_4" depart="245" departLane = "0" departSpeed="11.180000"/>
	<vehicle id="L_271" type="car5" route="route4_1" depart="245" departLane = "0" departSpeed="11.180000"/>
	<vehicle id="S_272" type="car6" route="route1_3" depart="246" departLane = "2" departSpeed="11.180000"/>