<routes>

	<vType id="car5" accel="100.0" decel="100.0" sigma="0.0" length="5" minGap="3.000000" maxSpeed="11.180000" tau="0.100000" carFollowModel="CACC" color="255,255,255"/>
	<vType id="car6" accel="100.0" decel="100.0" sigma="0.0" length="6" minGap="3.000000" maxSpeed="11.180000" tau="0.100000" carFollowModel="CACC" color="255,255,255"/>
	<vType id="car7" accel="100.0" decel="100.0" sigma="0.0" length="7" minGap="3.000000" maxSpeed="11.180000" tau="0.100000" carFollowModel="CACC" color="255,255,255"/>
	<vType id="car8" accel="100.0" decel="100.0" sigma="0.0" length="8" minGap="3.000000" maxSpeed="11.180000" tau="0.100000" carFollowModel="CACC" color="255,255,255"/>
	<vType id="car9" accel="100.0" decel="100.0" sigma="0.0" length="9" minGap="3.000000" maxSpeed="11.180000" tau="0.100000" carFollowModel="CACC" color="255,255,255"/>

	<route id="route0_1_2" edges=" 001_001_1"/>
	<route id="route0_1_3" edges=" 001_001_1"/>
	<route id="route0_1_4" edges=" 001_001_1"/>
	<route id="route0_2_1" edges=" 001_001_2"/>
	<route id="route0_2_3" edges=" 001_001_2"/>
	<route id="route0_2_4" edges=" 001_001_2"/>
	<route id="route0_3_1" edges=" 001_001_3"/>
	<route id="route0_3_2" edges=" 001_001_3"/>
	<route id="route0_3_4" edges=" 001_001_3"/>
	<route id="route0_4_1" edges=" 001_001_4"/>
	<route id="route0_4_2" edges=" 001_001_4"/>
	<route id="route0_4_3" edges=" 001_001_4"/>
	<route id="route1_1_2" edges=" 002_001_1"/>
	<route id="route1_1_3" edges=" 002_001_1"/>
	<route id="route1_1_4" edges=" 002_001_1"/>
	<route id="route1_2_1" edges=" 002_001_2"/>
	<route id="route1_2_3" edges=" 002_001_2"/>
	<route id="route1_2_4" edges=" 002_001_2"/>
	<route id="route1_3_1" edges=" 002_001_3"/>
	<route id="route1_3_2" edges=" 002_001_3"/>
	<route id="route1_3_4" edges=" 002_001_3"/>
	<route id="route1_4_1" edges=" 002_001_4"/>
	<route id="route1_4_2" edges=" 002_001_4"/>
	<route id="route1_4_3" edges=" 002_001_4"/>

	<vehicle id="SL_0" type="car8" route="route0_1_3" depart="0" departLane = "1" departSpeed="11.180000"/>
	<vehicle id="SX_1" type="car8" route="route0_4_2" depart="0" departLane = "1" departSpeed="11.180000"/>
	<vehicle id="RL_2" type="car8" route="route1_2_1" depart="0" departLane = "0" departSpeed="11.180000"/>
	<vehicle id="LX_3" type="car5" route="route1_3_4" depart="0" departLane = "2" departSpeed="11.180000"/>
	<vehicle id="RX_4" type="car5" route="route1_4_3" depart="0" departLane = "0" departSpeed="11.180000"/>
	<vehicle id="RX_5" type="car7" route="route0_1_4" depart="1" departLane = "0" departSpeed="11.180000"/>
	<vehicle id="LS_6" type="car6" route="route0_2_3" depart="1" departLane = "2" departSpeed="11.180000"/>
	<vehicle id="RL_7" type="car7" route="route0_4_3" depart="1" departLane = "0" departSpeed="11.180000"/>
	<vehicle id="LX_8" type="car6" route="route1_2_3" depart="1" departLane = "2" departSpeed="11.180000"/>
	<vehicle id="LL_9" type="car7" route="route1_4_1" depart="1" departLane = "2" departSpeed="11.180000"/>
	<vehicle id="RX_10" type="car8" route="route0_1_4" depart="2" departLane = "0" departSpeed="11.180000"/>
	<vehicle id="RL_11" type="car8" route="route0_4_3" depart="2" departLane = "0" departSpeed="11.180000"/>
	<vehicle id="RL_12" type="car8" route="route1_2_1" depart="2" departLane = "0" departSpeed="11.180000"/>
	<vehicle id="SR_13" type="car5" route="route1_3_1" depart="2" departLane = "1" departSpeed="11.180000"/>
	<vehicle id="RX_14" type="car9" route="route1_4_3" depart="2" departLane = "0" departSpeed="11.180000"/>
	<vehicle id="SL_15" type="car9" route="route0_1_3" depart="3" departLane = "1" departSpeed="11.180000"/>
	<vehicle id="SX_16" type="car6" route="route0_2_4" depart="3" departLane = "1" departSpeed="11.180000"/>
	<vehicle id="LX_17" type="car6" route="route0_4_1" depart="3" departLane = "2" departSpeed="11.180000"/>
	<vehicle id="LX_18" type="car8" route="route1_3_4" depart="3" departLane = "2" departSpeed="11.180000"/>
	<vehicle id="RX_19" type="car9" route="route1_4_3" depart="3" departLane = "0" departSpeed="11.180000"/>
	<vehicle id="LX_20" type="car5" route="route0_1_2" depart="4" departLane = "2" departSpeed="11.180000"/>
	<vehicle id="SX_21" type="car9" route="route0_2_4" depart="4" departLane = "1" departSpeed="11.180000"/>
	<vehicle id="SX_22" type="car9" route="route0_4_2" depart="4" departLane = "1" departSpeed="11.180000"/>
	<vehicle id="LX_23" type="car9" route="route1_2_3" depart="4" departLane = "2" departSpeed="11.180000"/>
	<vehicle id="SL_24" type="car7" route="route1_3_1" depart="4" departLane = "1" departSpeed="11.180000"/>
	<vehicle id="RX_25" type="car7" route="route1_4_3" depart="4" departLane = "0" departSpeed="11.180000"/>
	<vehicle id="RX_26" type="car5" route="route0_2_1" depart="5" departLane = "0" departSpeed="11.180000"/>
	<vehicle id="LX_27" type="car7" route="route0_4_1" depart="5" departLane = "2" departSpeed="11.180000"/>
	<vehicle id="RS_28" type="car7" route="route1_2_1" depart="5" departLane = "0" departSpeed="11.180000"/>
	<vehicle id="RX_29" type="car8" route="route1_3_2" depart="5" departLane = "0" departSpeed="11.180000"/>
	<vehicle id="SX_30" type="car9" route="route1_4_2" depart="5" departLane = "1" departSpeed="11.180000"/>
	<vehicle id="SL_31" type="car9" route="route0_1_3" depart="6" departLane = "1" departSpeed="11.180000"/>
	<vehicle id="LS_32" type="car5" route="route0_2_3" depart="6" departLane = "2" departSpeed="11.180000"/>
	<vehicle id="RL_33" type="car7" route="route0_4_3" depart="6" departLane = "0" departSpeed="11.180000"/>
	<vehicle id="LX_34" type="car7" route="route1_2_3" depart="6" departLane = "2" departSpeed="11.180000"/>
	<vehicle id="RX_35" type="car5" route="route1_3_2" depart="6" departLane = "0" departSpeed="11.180000"/>
	<vehicle id="RX_36" type="car9" route="route1_4_3" depart="6" departLane = "0" departSpeed="11.180000"/>
	<vehicle id="RX_37" type="car7" route="route0_1_4" depart="7" departLane = "0" departSpeed="11.180000"/>
	<vehicle id="SX_38" type="car6" route="route0_2_4" depart="7" departLane = "1" departSpeed="11.180000"/>
	<vehicle id="SX_39" type="car9" route="route0_4_2" depart="7" departLane = "1" departSpeed="11.180000"/>
	<vehicle id="SX_40" type="car8" route="route1_2_4" depart="7" departLane = "1" departSpeed="11.180000"/>
	<vehicle id="SL_41" type="car5" route="route1_3_1" depart="7" departLane = "1" departSpeed="11.180000"/>
	<vehicle id="LL_42" type="car9" route="route1_4_1" depart="7" departLane = "2" departSpeed="11.180000"/>
	<vehicle id="SS_43" type="car9" route="route0_1_3" depart="8" departLane = "1" departSpeed="11.180000"/>
	<vehicle id="SX_44" type="car8" route="route0_2_4" depart="8" departLane = "1" departSpeed="11.180000"/>
	<vehicle id="SX_45" type="car5" route="route0_4_2" depart="8" departLane = "1" departSpeed="11.180000"/>
	<vehicle id="LX_46" type="car6" route="route1_2_3" depart="8" departLane = "2" departSpeed="11.180000"/>
	<vehicle id="RX_47" type="car8" route="route1_3_2" depart="8" departLane = "0" departSpeed="11.180000"/>
	<vehicle id="RX_48" type="car8" route="route0_1_4" depart="9" departLane = "0" departSpeed="11.180000"/>
	<vehicle id="SX_49" type="car8" route="route0_2_4" depart="9" departLane = "1" departSpeed="11.180000"/>
	<vehicle id="SX_50" type="car5" route="route0_4_2" depart="9" departLane = "1" departSpeed="11.180000"/>
	<vehicle id="SX_51" type="car5" route="route1_4_2" depart="9" departLane = "1" departSpeed="11.180000"/>
	<vehicle id="LX_52" type="car5" route="route0_1_2" depart="10" departLane = "2" departSpeed="11.180000"/>
	<vehicle id="LL_53" type="car5" route="route0_2_3" depart="10" departLane = "2" departSpeed="11.180000"/>
	<vehicle id="LX_54" type="car8" route="route0_4_1" depart="10" departLane = "2" departSpeed="11.180000"/>
	<vehicle id="RR_55" type="car8" route="route1_2_1" depart="10" departLane = "0" departSpeed="11.180000"/>
	<vehicle id="SR_56" type="car7" route="route1_3_1" depart="10" departLane = "1" departSpeed="11.180000"/>
	<vehicle id="SX_57" type="car9" route="route1_4_2" depart="10" departLane = "1" departSpeed="11.180000"/>
	<vehicle id="LX_58" type="car9" route="route0_1_2" depart="11" departLane = "2" departSpeed="11.180000"/>
	<vehicle id="SX_59" type="car8" route="route0_2_4" depart="11" departLane = "1" departSpeed="11.180000"/>
	<vehicle id="SX_60" type="car6" route="route0_4_2" depart="11" departLane = "1" departSpeed="11.180000"/>
	<vehicle id="LX_61" type="car5" route="route1_2_3" depart="11" departLane = "2" departSpeed="11.180000"/>
	<vehicle id="SX_62" type="car8" route="route1_4_2" depart="11" departLane = "1" departSpeed="11.180000"/>
	<vehicle id="RX_63" type="car5" route="route0_1_4" depart="12" departLane = "0" departSpeed="11.180000"/>
	<vehicle id="SX_64" type="car5" route="route0_2_4" depart="12" departLane = "1" departSpeed="11.180000"/>
	<vehicle id="SX_65" type="car7" route="route0_4_2" depart="12" departLane = "1" departSpeed="11.180000"/>
	<vehicle id="RR_66" type="car7" route="route1_2_1" depart="12" departLane = "0" departSpeed="11.180000"/>
	<vehicle id="LX_67" type="car5" route="route1_3_4" depart="12" departLane = "2" departSpeed="11.180000"/>
	<vehicle id="SS_68" type="car6" route="route0_1_3" depart="13" departLane = "1" departSpeed="11.180000"/>
	<vehicle id="LL_69" type="car5" route="route0_2_3" depart="13" departLane = "2" departSpeed="11.180000"/>
	<vehicle id="LX_70" type="car5" route="route0_4_1" depart="13" departLane = "2" departSpeed="11.180000"/>
	<vehicle id="SX_71" type="car9" route="route1_2_4" depart="13" departLane = "1" departSpeed="11.180000"/>
	<vehicle id="SL_72" type="car8" route="route1_3_1" depart="13" departLane = "1" departSpeed="11.180000"/>
	<vehicle id="SX_73" type="car6" route="route1_4_2" depart="13" departLane = "1" departSpeed="11.180000"/>
	<vehicle id="LS_74" type="car9" route="route0_2_3" depart="14" departLane = "2" departSpeed="11.180000"/>
	<vehicle id="RR_75" type="car9" route="route0_4_3" depart="14" departLane = "0" departSpeed="11.180000"/>
	<vehicle id="SX_76" type="car5" route="route1_2_4" depart="14" departLane = "1" departSpeed="11.180000"/>
	<vehicle id="LX_77" type="car5" route="route1_3_4" depart="14" departLane = "2" departSpeed="11.180000"/>
	<vehicle id="RX_78" type="car9" route="route1_4_3" depart="14" departLane = "0" departSpeed="11.180000"/>
	<vehicle id="RX_79" type="car8" route="route0_1_4" depart="15" departLane = "0" departSpeed="11.180000"/>
	<vehicle id="SX_80" type="car8" route="route0_2_4" depart="15" departLane = "1" departSpeed="11.180000"/>
	<vehicle id="RR_81" type="car6" route="route0_4_3" depart="15" departLane = "0" departSpeed="11.180000"/>
	<vehicle id="LX_82" type="car9" route="route1_2_3" depart="15" departLane = "2" departSpeed="11.180000"/>
	<vehicle id="LX_83" type="car7" route="route1_3_4" depart="15" departLane = "2" departSpeed="11.180000"/>
	<vehicle id="LR_84" type="car8" route="route1_4_1" depart="15" departLane = "2" departSpeed="11.180000"/>
	<vehicle id="RX_85" type="car6" route="route0_1_4" depart="16" departLane = "0" departSpeed="11.180000"/>
	<vehicle id="LS_86" type="car9" route="route0_2_3" depart="16" departLane = "2" departSpeed="11.180000"/>
	<vehicle id="SX_87" type="car7" route="route0_4_2" depart="16" departLane = "1" departSpeed="11.180000"/>
	<vehicle id="LX_88" type="car5" route="route1_2_3" depart="16" departLane = "2" departSpeed="11.180000"/>
	<vehicle id="SR_89" type="car6" route="route1_3_1" depart="16" departLane = "1" departSpeed="11.180000"/>
	<vehicle id="SX_90" type="car8" route="route1_4_2" depart="16" departLane = "1" departSpeed="11.180000"/>
	<vehicle id="RX_91" type="car7" route="route0_1_4" depart="17" departLane = "0" departSpeed="11.180000"/>
	<vehicle id="SX_92" type="car5" route="route0_2_4" depart="17" departLane = "1" departSpeed="11.180000"/>
	<vehicle id="LX_93" type="car8" route="route0_4_1" depart="17" departLane = "2" departSpeed="11.180000"/>
	<vehicle id="SX_94" type="car9" route="route1_2_4" depart="17" departLane = "1" departSpeed="11.180000"/>
	<vehicle id="SS_95" type="car5" route="route1_3_1" depart="17" departLane = "1" departSpeed="11.180000"/>
	<vehicle id="SX_96" type="car7" route="route1_4_2" depart="17" departLane = "1" departSpeed="11.180000"/>
	<vehicle id="SS_97" type="car5" route="route0_1_3" depart="18" departLane = "1" departSpeed="11.180000"/>
	<vehicle id="LL_98" type="car6" route="route0_2_3" depart="18" departLane = "2" departSpeed="11.180000"/>
	<vehicle id="RL_99" type="car9" route="route0_4_3" depart="18" departLane = "0" departSpeed="11.180000"/>
	<vehicle id="LX_100" type="car6" route="route1_2_3" depart="18" departLane = "2" departSpeed="11.180000"/>
	<vehicle id="LS_101" type="car9" route="route1_4_1" depart="18" departLane = "2" departSpeed="11.180000"/>
	<vehicle id="RX_102" type="car5" route="route0_1_4" depart="19" departLane = "0" departSpeed="11.180000"/>
	<vehicle id="RX_103" type="car8" route="route0_2_1" depart="19" departLane = "0" departSpeed="11.180000"/>
	<vehicle id="RL_104" type="car5" route="route0_4_3" depart="19" departLane = "0" departSpeed="11.180000"/>
	<vehicle id="SX_105" type="car8" route="route1_2_4" depart="19" departLane = "1" departSpeed="11.180000"/>
	<vehicle id="SX_106" type="car7" route="route1_4_2" depart="19" departLane = "1" departSpeed="11.180000"/>
	<vehicle id="LX_107" type="car5" route="route0_1_2" depart="20" departLane = "2" departSpeed="11.180000"/>
	<vehicle id="RX_108" type="car5" route="route0_2_1" depart="20" departLane = "0" departSpeed="11.180000"/>
	<vehicle id="LX_109" type="car6" route="route0_4_1" depart="20" departLane = "2" departSpeed="11.180000"/>
	<vehicle id="RS_110" type="car5" route="route1_2_1" depart="20" departLane = "0" departSpeed="11.180000"/>
	<vehicle id="LX_111" type="car7" route="route1_3_4" depart="20" departLane = "2" departSpeed="11.180000"/>
	<vehicle id="SX_112" type="car6" route="route1_4_2" depart="20" departLane = "1" departSpeed="11.180000"/>
	<vehicle id="LX_113" type="car9" route="route0_1_2" depart="21" departLane = "2" departSpeed="11.180000"/>
	<vehicle id="SX_114" type="car5" route="route0_2_4" depart="21" departLane = "1" departSpeed="11.180000"/>
	<vehicle id="SX_115" type="car9" route="route0_4_2" depart="21" departLane = "1" departSpeed="11.180000"/>
	<vehicle id="RX_116" type="car6" route="route1_3_2" depart="21" departLane = "0" departSpeed="11.180000"/>
	<vehicle id="SX_117" type="car9" route="route1_4_2" depart="21" departLane = "1" departSpeed="11.180000"/>
	<vehicle id="LX_118" type="car8" route="route0_1_2" depart="22" departLane = "2" departSpeed="11.180000"/>
	<vehicle id="SX_119" type="car6" route="route0_4_2" depart="22" departLane = "1" departSpeed="11.180000"/>
	<vehicle id="SX_120" type="car7" route="route1_2_4" depart="22" departLane = "1" departSpeed="11.180000"/>
	<vehicle id="SL_121" type="car7" route="route1_3_1" depart="22" departLane = "1" departSpeed="11.180000"/>
	<vehicle id="LS_122" type="car7" route="route1_4_1" depart="22" departLane = "2" departSpeed="11.180000"/>
	<vehicle id="SR_123" type="car8" route="route0_1_3" depart="23" departLane = "1" departSpeed="11.180000"/>
	<vehicle id="RR_124" type="car5" route="route0_4_3" depart="23" departLane = "0" departSpeed="11.180000"/>
	<vehicle id="SX_125" type="car9" route="route1_2_4" depart="23" departLane = "1" departSpeed="11.180000"/>
	<vehicle id="SS_126" type="car9" route="route1_3_1" depart="23" departLane = "1" departSpeed="11.180000"/>
	<vehicle id="RX_127" type="car6" route="route1_4_3" depart="23" departLane = "0" departSpeed="11.180000"/>
	<vehicle id="LX_128" type="car5" route="route0_1_2" depart="24" departLane = "2" departSpeed="11.180000"/>
	<vehicle id="LS_129" type="car9" route="route0_2_3" depart="24" departLane = "2" departSpeed="11.180000"/>
	<vehicle id="LX_130" type="car7" route="route0_4_1" depart="24" departLane = "2" departSpeed="11.180000"/>
	<vehicle id="RR_131" type="car5" route="route1_2_1" depart="24" departLane = "0" departSpeed="11.180000"/>
	<vehicle id="SL_132" type="car5" route="route1_3_1" depart="24" departLane = "1" departSpeed="11.180000"/>
	<vehicle id="LR_133" type="car9" route="route1_4_1" depart="24" departLane = "2" departSpeed="11.180000"/>
	<vehicle id="RX_134" type="car9" route="route0_1_4" depart="25" departLane = "0" departSpeed="11.180000"/>
	<vehicle id="RX_135" type="car5" route="route0_2_1" depart="25" departLane = "0" departSpeed="11.180000"/>
	<vehicle id="SX_136" type="car8" route="route0_4_2" depart="25" departLane = "1" departSpeed="11.180000"/>
	<vehicle id="LX_137" type="car8" route="route1_3_4" depart="25" departLane = "2" departSpeed="11.180000"/>
	<vehicle id="LR_138" type="car8" route="route1_4_1" depart="25" departLane = "2" departSpeed="11.180000"/>
	<vehicle id="SS_139" type="car8" route="route0_1_3" depart="26" departLane = "1" departSpeed="11.180000"/>
	<vehicle id="RX_140" type="car7" route="route0_2_1" depart="26" departLane = "0" departSpeed="11.180000"/>
	<vehicle id="LX_141" type="car7" route="route0_4_1" depart="26" departLane = "2" departSpeed="11.180000"/>
	<vehicle id="LX_142" type="car8" route="route1_2_3" depart="26" departLane = "2" departSpeed="11.180000"/>
	<vehicle id="RX_143" type="car5" route="route1_3_2" depart="26" departLane = "0" departSpeed="11.180000"/>
	<vehicle id="RX_144" type="car6" route="route1_4_3" depart="26" departLane = "0" departSpeed="11.180000"/>
	<vehicle id="RX_145" type="car6" route="route0_1_4" depart="27" departLane = "0" departSpeed="11.180000"/>
	<vehicle id="SX_146" type="car8" route="route0_2_4" depart="27" departLane = "1" departSpeed="11.180000"/>
	<vehicle id="SX_147" type="car7" route="route0_4_2" depart="27" departLane = "1" departSpeed="11.180000"/>
	<vehicle id="RR_148" type="car9" route="route1_2_1" depart="27" departLane = "0" departSpeed="11.180000"/>
	<vehicle id="LX_149" type="car6" route="route1_3_4" depart="27" departLane = "2" departSpeed="11.180000"/>
	<vehicle id="SX_150" type="car9" route="route1_4_2" depart="27" departLane = "1" departSpeed="11.180000"/>
	<vehicle id="SR_151" type="car5" route="route0_1_3" depart="28" departLane = "1" departSpeed="11.180000"/>
	<vehicle id="SX_152" type="car7" route="route0_2_4" depart="28" departLane = "1" departSpeed="11.180000"/>
	<vehicle id="RR_153" type="car8" route="route0_4_3" depart="28" departLane = "0" departSpeed="11.180000"/>
	<vehicle id="LX_154" type="car5" route="route1_2_3" depart="28" departLane = "2" departSpeed="11.180000"/>
	<vehicle id="LX_155" type="car7" route="route1_3_4" depart="28" departLane = "2" departSpeed="11.180000"/>
	<vehicle id="RX_156" type="car7" route="route1_4_3" depart="28" departLane = "0" departSpeed="11.180000"/>
	<vehicle id="LX_157" type="car8" route="route0_1_2" depart="29" departLane = "2" departSpeed="11.180000"/>
	<vehicle id="SX_158" type="car7" route="route0_2_4" depart="29" departLane = "1" departSpeed="11.180000"/>
	<vehicle id="RR_159" type="car7" route="route0_4_3" depart="29" departLane = "0" departSpeed="11.180000"/>
	<vehicle id="LX_160" type="car6" route="route1_2_3" depart="29" departLane = "2" departSpeed="11.180000"/>
	<vehicle id="SS_161" type="car7" route="route1_3_1" depart="29" departLane = "1" departSpeed="11.180000"/>
	<vehicle id="SX_162" type="car8" route="route1_4_2" depart="29" departLane = "1" departSpeed="11.180000"/>
	<vehicle id="RX_163" type="car6" route="route0_1_4" depart="30" departLane = "0" departSpeed="11.180000"/>
	<vehicle id="SX_164" type="car5" route="route0_2_4" depart="30" departLane = "1" departSpeed="11.180000"/>
	<vehicle id="SX_165" type="car6" route="route0_4_2" depart="30" departLane = "1" departSpeed="11.180000"/>
	<vehicle id="LX_166" type="car5" route="route1_2_3" depart="30" departLane = "2" departSpeed="11.180000"/>
	<vehicle id="LX_167" type="car7" route="route1_3_4" depart="30" departLane = "2" departSpeed="11.180000"/>
	<vehicle id="SX_168" type="car6" route="route1_4_2" depart="30" departLane = "1" departSpeed="11.180000"/>
	<vehicle id="LX_169" type="car5" route="route0_4_1" depart="31" departLane = "2" departSpeed="11.180000"/>
	<vehicle id="SX_170" type="car8" route="route1_2_4" depart="31" departLane = "1" departSpeed="11.180000"/>
	<vehicle id="RX_171" type="car7" route="route1_3_2" depart="31" departLane = "0" departSpeed="11.180000"/>
	<vehicle id="RX_172" type="car5" route="route1_4_3" depart="31" departLane = "0" departSpeed="11.180000"/>
	<vehicle id="RX_173" type="car9" route="route0_1_4" depart="32" departLane = "0" departSpeed="11.180000"/>
	<vehicle id="SX_174" type="car7" route="route0_2_4" depart="32" departLane = "1" departSpeed="11.180000"/>
	<vehicle id="SX_175" type="car6" route="route0_4_2" depart="32" departLane = "1" departSpeed="11.180000"/>
	<vehicle id="RL_176" type="car5" route="route1_2_1" depart="32" departLane = "0" departSpeed="11.180000"/>
	<vehicle id="SR_177" type="car7" route="route1_3_1" depart="32" departLane = "1" departSpeed="11.180000"/>
	<vehicle id="LX_178" type="car5" route="route0_1_2" depart="33" departLane = "2" departSpeed="11.180000"/>
	<vehicle id="RX_179" type="car7" route="route0_2_1" depart="33" departLane = "0" departSpeed="11.180000"/>
	<vehicle id="LX_180" type="car8" route="route0_4_1" depart="33" departLane = "2" departSpeed="11.180000"/>
	<vehicle id="LX_181" type="car9" route="route1_2_3" depart="33" departLane = "2" departSpeed="11.180000"/>
	<vehicle id="LX_182" type="car5" route="route1_3_4" depart="33" departLane = "2" departSpeed="11.180000"/>
	<vehicle id="LL_183" type="car7" route="route1_4_1" depart="33" departLane = "2" departSpeed="11.180000"/>
	<vehicle id="LX_184" type="car5" route="route0_1_2" depart="34" departLane = "2" departSpeed="11.180000"/>
	<vehicle id="SX_185" type="car9" route="route0_2_4" depart="34" departLane = "1" departSpeed="11.180000"/>
	<vehicle id="SX_186" type="car6" route="route0_4_2" depart="34" departLane = "1" departSpeed="11.180000"/>
	<vehicle id="RL_187" type="car7" route="route1_2_1" depart="34" departLane = "0" departSpeed="11.180000"/>
	<vehicle id="LX_188" type="car6" route="route1_3_4" depart="34" departLane = "2" departSpeed="11.180000"/>
	<vehicle id="RX_189" type="car8" route="route0_1_4" depart="35" departLane = "0" departSpeed="11.180000"/>
	<vehicle id="RX_190" type="car8" route="route0_2_1" depart="35" departLane = "0" departSpeed="11.180000"/>
	<vehicle id="SX_191" type="car9" route="route0_4_2" depart="35" departLane = "1" departSpeed="11.180000"/>
	<vehicle id="RS_192" type="car6" route="route1_2_1" depart="35" departLane = "0" departSpeed="11.180000"/>
	<vehicle id="SR_193" type="car9" route="route1_3_1" depart="35" departLane = "1" departSpeed="11.180000"/>
	<vehicle id="RX_194" type="car8" route="route1_4_3" depart="35" departLane = "0" departSpeed="11.180000"/>
	<vehicle id="RX_195" type="car5" route="route0_1_4" depart="36" departLane = "0" departSpeed="11.180000"/>
	<vehicle id="LR_196" type="car5" route="route0_2_3" depart="36" departLane = "2" departSpeed="11.180000"/>
	<vehicle id="SX_197" type="car9" route="route0_4_2" depart="36" departLane = "1" departSpeed="11.180000"/>
	<vehicle id="RS_198" type="car6" route="route1_2_1" depart="36" departLane = "0" departSpeed="11.180000"/>
	<vehicle id="LX_199" type="car8" route="route1_3_4" depart="36" departLane = "2" departSpeed="11.180000"/>
	<vehicle id="RX_200" type="car9" route="route1_4_3" depart="36" departLane = "0" departSpeed="11.180000"/>
	<vehicle id="LX_201" type="car6" route="route0_1_2" depart="37" departLane = "2" departSpeed="11.180000"/>
	<vehicle id="RX_202" type="car6" route="route0_2_1" depart="37" departLane = "0" departSpeed="11.180000"/>
	<vehicle id="RS_203" type="car7" route="route0_4_3" depart="37" departLane = "0" departSpeed="11.180000"/>
	<vehicle id="SX_204" type="car5" route="route1_2_4" depart="37" departLane = "1" departSpeed="11.180000"/>
	<vehicle id="SX_205" type="car9" route="route1_4_2" depart="37" departLane = "1" departSpeed="11.180000"/>
	<vehicle id="LR_206" type="car6" route="route0_2_3" depart="38" departLane = "2" departSpeed="11.180000"/>
	<vehicle id="RR_207" type="car6" route="route0_4_3" depart="38" departLane = "0" departSpeed="11.180000"/>
	<vehicle id="LX_208" type="car7" route="route1_2_3" depart="38" departLane = "2" departSpeed="11.180000"/>
	<vehicle id="RX_209" type="car8" route="route1_3_2" depart="38" departLane = "0" departSpeed="11.180000"/>
	<vehicle id="RX_210" type="car9" route="route1_4_3" depart="38" departLane = "0" departSpeed="11.180000"/>
	<vehicle id="LX_211" type="car8" route="route0_1_2" depart="39" departLane = "2" departSpeed="11.180000"/>
	<vehicle id="LS_212" type="car9" route="route0_2_3" depart="39" departLane = "2" departSpeed="11.180000"/>
	<vehicle id="LX_213" type="car9" route="route1_2_3" depart="39" departLane = "2" departSpeed="11.180000"/>
	<vehicle id="RX_214" type="car5" route="route1_3_2" depart="39" departLane = "0" departSpeed="11.180000"/>
	<vehicle id="RX_215" type="car8" route="route1_4_3" depart="39" departLane = "0" departSpeed="11.180000"/>
	<vehicle id="LX_216" type="car5" route="route0_1_2" depart="40" departLane = "2" departSpeed="11.180000"/>
	<vehicle id="RX_217" type="car6" route="route0_2_1" depart="40" departLane = "0" departSpeed="11.180000"/>
	<vehicle id="LX_218" type="car7" route="route0_4_1" depart="40" departLane = "2" departSpeed="11.180000"/>
	<vehicle id="LX_219" type="car6" route="route1_2_3" depart="40" departLane = "2" departSpeed="11.180000"/>
	<vehicle id="RX_220" type="car8" route="route1_3_2" depart="40" departLane = "0" departSpeed="11.180000"/>
	<vehicle id="SS_221" type="car7" route="route0_1_3" depart="41" departLane = "1" departSpeed="11.180000"/>
	<vehicle id="RX_222" type="car7" route="route0_2_1" depart="41" departLane = "0" departSpeed="11.180000"/>
	<vehicle id="LX_223" type="car7" route="route0_4_1" depart="41" departLane = "2" departSpeed="11.180000"/>
	<vehicle id="LX_224" type="car6" route="route1_2_3" depart="41" departLane = "2" departSpeed="11.180000"/>
	<vehicle id="LS_225" type="car7" route="route1_4_1" depart="41" departLane = "2" departSpeed="11.180000"/>
	<vehicle id="SX_226" type="car7" route="route0_2_4" depart="42" departLane = "1" departSpeed="11.180000"/>
	<vehicle id="RR_227" type="car8" route="route0_4_3" depart="42" departLane = "0" departSpeed="11.180000"/>
	<vehicle id="LX_228" type="car8" route="route1_2_3" depart="42" departLane = "2" departSpeed="11.180000"/>
	<vehicle id="SS_229" type="car8" route="route1_3_1" depart="42" departLane = "1" departSpeed="11.180000"/>
	<vehicle id="LL_230" type="car9" route="route1_4_1" depart="42" departLane = "2" departSpeed="11.180000"/>
	<vehicle id="RX_231" type="car5" route="route0_1_4" depart="43" departLane = "0" departSpeed="11.180000"/>
	<vehicle id="LR_232" type="car5" route="route0_2_3" depart="43" departLane = "2" departSpeed="11.180000"/>
	<vehicle id="SX_233" type="car8" route="route0_4_2" depart="43" departLane = "1" departSpeed="11.180000"/>
	<vehicle id="LX_234" type="car6" route="route1_2_3" depart="43" departLane = "2" departSpeed="11.180000"/>
	<vehicle id="LX_235" type="car5" route="route1_3_4" depart="43" departLane = "2" departSpeed="11.180000"/>
	<vehicle id="LR_236" type="car9" route="route1_4_1" depart="43" departLane = "2" departSpeed="11.180000"/>
	<vehicle id="LX_237" type="car8" route="route0_1_2" depart="44" departLane = "2" departSpeed="11.180000"/>
	<vehicle id="LS_238" type="car5" route="route0_2_3" depart="44" departLane = "2" departSpeed="11.180000"/>
	<vehicle id="RR_239" type="car7" route="route1_2_1" depart="44" departLane = "0" departSpeed="11.180000"/>
	<vehicle id="SS_240" type="car6" route="route1_3_1" depart="44" departLane = "1" departSpeed="11.180000"/>
	<vehicle id="RX_241" type="car7" route="route1_4_3" depart="44" departLane = "0" departSpeed="11.180000"/>
	<vehicle id="SL_242" type="car9" route="route0_1_3" depart="45" departLane = "1" departSpeed="11.180000"/>
	<vehicle id="LL_243" type="car9" route="route0_2_3" depart="45" departLane = "2" departSpeed="11.180000"/>
	<vehicle id="LX_244" type="car7" route="route1_2_3" depart="45" departLane = "2" departSpeed="11.180000"/>
	<vehicle id="RX_245" type="car6" route="route1_4_3" depart="45" departLane = "0" departSpeed="11.180000"/>
	<vehicle id="RX_246" type="car8" route="route0_1_4" depart="46" departLane = "0" departSpeed="11.180000"/>
	<vehicle id="LX_247" type="car6" route="route0_4_1" depart="46" departLane = "2" departSpeed="11.180000"/>
	<vehicle id="SX_248" type="car6" route="route1_2_4" depart="46" departLane = "1" departSpeed="11.180000"/>
	<vehicle id="LX_249" type="car8" route="route1_3_4" depart="46" departLane = "2" departSpeed="11.180000"/>
	<vehicle id="RX_250" type="car7" route="route1_4_3" depart="46" departLane = "0" departSpeed="11.180000"/>
	<vehicle id="LX_251" type="car6" route="route0_1_2" depart="47" departLane = "2" departSpeed="11.180000"/>
	<vehicle id="LS_252" type="car6" route="route0_2_3" depart="47" departLane = "2" departSpeed="11.180000"/>
	<vehicle id="RR_253" type="car7" route="route0_4_3" depart="47" departLane = "0" departSpeed="11.180000"/>
	<vehicle id="LX_254" type="car8" route="route1_2_3" depart="47" departLane = "2" departSpeed="11.180000"/>
	<vehicle id="LX_255" type="car9" route="route1_3_4" depart="47" departLane = "2" departSpeed="11.180000"/>
	<vehicle id="RX_256" type="car7" route="route1_4_3" depart="47" departLane = "0" departSpeed="11.180000"/>
	<vehicle id="SR_257" type="car7" route="route0_1_3" depart="48" departLane = "1" departSpeed="11.180000"/>
	<vehicle id="RX_258" type="car8" route="route0_2_1" depart="48" departLane = "0" departSpeed="11.180000"/>
	<vehicle id="SX_259" type="car9" route="route0_4_2" depart="48" departLane = "1" departSpeed="11.180000"/>
	<vehicle id="SX_260" type="car7" route="route1_2_4" depart="48" departLane = "1" departSpeed="11.180000"/>