<routes>

	<vType id="car5" accel="100.0" decel="100.0" sigma="0.0" length="5" minGap="3.000000" maxSpeed="11.180000" tau="0.100000" carFollowModel="CACC" color="255,255,255"/>
	<vType id="car6" accel="100.0" decel="100.0" sigma="0.0" length="6" minGap="3.000000" maxSpeed="11.180000" tau="0.100000" carFollowModel="CACC" color="255,255,255"/>
	<vType id="car7" accel="100.0" decel="100.0" sigma="0.0" length="7" minGap="3.000000" maxSpeed="11.180000" tau="0.100000" carFollowModel="CACC" color="255,255,255"/>
	<vType id="car8" accel="100.0" decel="100.0" sigma="0.0" length="8" minGap="3.000000" maxSpeed="11.180000" tau="0.100000" carFollowModel="CACC" color="255,255,255"/>
	<vType id="car9" accel="100.0" decel="100.0" sigma="0.0" length="9" minGap="3.000000" maxSpeed="11.180000" tau="0.100000" carFollowModel="CACC" color="255,255,255"/>

	<route id="route1_2" edges=" 1 -2"/>
	<route id="route1_3" edges=" 1 -3"/>
	<route id="route1_4" edges=" 1 -4"/>
	<route id="route2_1" edges=" 2 -1"/>
	<route id="route2_3" edges=" 2 -3"/>
	<route id="route2_4" edges=" 2 -4"/>
	<route id="route3_1" edges=" 3 -1"/>
	<route id="route3_2" edges=" 3 -2"/>
	<route id="route3_4" edges=" 3 -4"/>
	<route id="route4_1" edges=" 4 -1"/>
	<route id="route4_2" edges=" 4 -2"/>
	<route id="route4_3" edges=" 4 -3"/>

	<vehicle id="S_0" type="car9" route="route3_1" depart="0" departLane = "0" departSpeed="11.180000"/>
	<vehicle id="L_1" type="car8" route="route2_3" depart="1" departLane = "1" departSpeed="11.180000"/>
	<vehicle id="S_2" type="car6" route="route4_2" depart="1" departLane = "1" departSpeed="11.180000"/>
	<vehicle id="S_3" type="car5" route="route1_3" depart="3" departLane = "0" departSpeed="11.180000"/>
	<vehicle id="S_4" type="car6" route="route2_4" depart="3" departLane = "1" departSpeed="11.180000"/>
	<vehicle id="L_5" type="car7" route="route3_4" depart="3" departLane = "2" departSpeed="11.180000"/>
	<vehicle id="L_6" type="car6" route="route1_2" depart="4" departLane = "0" departSpeed="11.180000"/>
	<vehicle id="S_7" type="car9" route="route2_4" depart="4" departLane = "1" departSpeed="11.180000"/>
	<vehicle id="L_8" type="car8" route="route4_1" depart="4" departLane = "2" departSpeed="11.180000"/>
	<vehicle id="L_9" type="car9" route="route1_2" depart="6" departLane = "2" departSpeed="11.180000"/>
	<vehicle id="S_10" type="car8" route="route2_4" depart="6" departLane = "2" departSpeed="11.180000"/>
	<vehicle id="S_11" type="car7" route="route3_1" depart="6" departLane = "1" departSpeed="11.180000"/>
	<vehicle id="L_12" type="car9" route="route3_4" depart="7" departLane = "2" departSpeed="11.180000"/>
	<vehicle id="S_13" type="car9" route="route4_2" depart="7" departLane = "1" departSpeed="11.180000"/>
	<vehicle id="L_14" type="car6" route="route2_3" depart="8" departLane = "0" departSpeed="11.180000"/>
	<vehicle id="R_15" type="car6" route="route4_3" depart="8" departLane = "2" departSpeed="11.180000"/>
	<vehicle id="R_16" type="car8" route="route2_1" depart="9" departLane = "2" departSpeed="11.180000"/>
	<vehicle id="S_17" type="car7" route="route3_1" depart="10" departLane = "0" departSpeed="11.180000"/>
	<vehicle id="R_18" type="car8" route="route2_1" depart="11" departLane = "2" departSpeed="11.180000"/>
	<vehicle id="L_19" type="car5" route="route4_1" depart="11" departLane = "2" departSpeed="11.180000"/>
	<vehicle id="S_20" type="car9" route="route2_4" depart="12" departLane = "0" departSpeed="11.180000"/>
	<vehicle id="L_21" type="car9" route="route3_4" depart="12" departLane = "1" departSpeed="11.180000"/>
	<vehicle id="S_22" type="car9" route="route4_2" depart="12" departLane = "0" departSpeed="11.180000"/>
	<vehicle id="L_23" type="car5" route="route1_2" depart="13" departLane = "2" departSpeed="11.180000"/>
	<vehicle id="L_24" type="car8" route="route2_3" depart="13" departLane = "0" departSpeed="11.180000"/>
	<vehicle id="S_25" type="car5" route="route3_1" depart="13" departLane = "2" departSpeed="11.180000"/>
	<vehicle id="L_26" type="car9" route="route1_2" depart="14" departLane = "0" departSpeed="11.180000"/>
	<vehicle id="L_27" type="car8" route="route2_3" depart="14" departLane = "0" departSpeed="11.180000"/>
	<vehicle id="L_28" type="car9" route="route3_4" depart="14" departLane = "0" departSpeed="11.180000"/>
	<vehicle id="S_29" type="car6" route="route4_2" depart="14" departLane = "0" departSpeed="11.180000"/>
	<vehicle id="S_30" type="car5" route="route3_1" depart="15" departLane = "1" departSpeed="11.180000"/>
	<vehicle id="L_31" type="car8" route="route4_1" depart="15" departLane = "2" departSpeed="11.180000"/>
	<vehicle id="S_32" type="car8" route="route1_3" depart="17" departLane = "0" departSpeed="11.180000"/>
	<vehicle id="S_33" type="car7" route="route2_4" depart="17" departLane = "0" departSpeed="11.180000"/>
	<vehicle id="S_34" type="car6" route="route4_2" depart="17" departLane = "1" departSpeed="11.180000"/>
	<vehicle id="S_35" type="car6" route="route2_4" depart="18" departLane = "2" departSpeed="11.180000"/>
	<vehicle id="R_36" type="car7" route="route4_3" depart="18" departLane = "0" departSpeed="11.180000"/>
	<vehicle id="S_37" type="car5" route="route1_3" depart="19" departLane = "0" departSpeed="11.180000"/>
	<vehicle id="L_38" type="car8" route="route2_3" depart="19" departLane = "0" departSpeed="11.180000"/>
	<vehicle id="R_39" type="car6" route="route3_2" depart="20" departLane = "1" departSpeed="11.180000"/>
	<vehicle id="R_40" type="car7" route="route4_3" depart="21" departLane = "1" departSpeed="11.180000"/>
	<vehicle id="S_41" type="car7" route="route1_3" depart="22" departLane = "0" departSpeed="11.180000"/>
	<vehicle id="R_42" type="car6" route="route2_1" depart="22" departLane = "2" departSpeed="11.180000"/>
	<vehicle id="S_43" type="car6" route="route3_1" depart="22" departLane = "0" departSpeed="11.180000"/>
	<vehicle id="S_44" type="car7" route="route4_2" depart="22" departLane = "1" departSpeed="11.180000"/>
	<vehicle id="S_45" type="car6" route="route1_3" depart="23" departLane = "1" departSpeed="11.180000"/>
	<vehicle id="S_46" type="car7" route="route1_3" depart="24" departLane = "1" departSpeed="11.180000"/>
	<vehicle id="R_47" type="car7" route="route2_1" depart="24" departLane = "1" departSpeed="11.180000"/>
	<vehicle id="S_48" type="car9" route="route3_1" depart="24" departLane = "0" departSpeed="11.180000"/>
	<vehicle id="R_49" type="car9" route="route4_3" depart="24" departLane = "1" departSpeed="11.180000"/>
	<vehicle id="S_50" type="car6" route="route2_4" depart="25" departLane = "2" departSpeed="11.180000"/>
	<vehicle id="L_51" type="car5" route="route3_4" depart="25" departLane = "2" departSpeed="11.180000"/>
	<vehicle id="S_52" type="car8" route="route4_2" depart="25" departLane = "2" departSpeed="11.180000"/>
	<vehicle id="R_53" type="car7" route="route1_4" depart="26" departLane = "1" departSpeed="11.180000"/>
	<vehicle id="S_54" type="car7" route="route2_4" depart="26" departLane = "0" departSpeed="11.180000"/>
	<vehicle id="L_55" type="car6" route="route3_4" depart="26" departLane = "0" departSpeed="11.180000"/>
	<vehicle id="L_56" type="car5" route="route1_2" depart="27" departLane = "2" departSpeed="11.180000"/>
	<vehicle id="L_57" type="car8" route="route3_4" depart="27" departLane = "1" departSpeed="11.180000"/>
	<vehicle id="R_58" type="car5" route="route4_3" depart="27" departLane = "0" departSpeed="11.180000"/>
	<vehicle id="R_59" type="car8" route="route1_4" depart="28" departLane = "2" departSpeed="11.180000"/>
	<vehicle id="R_60" type="car8" route="route4_3" depart="28" departLane = "1" departSpeed="11.180000"/>
	<vehicle id="S_61" type="car7" route="route2_4" depart="29" departLane = "1" departSpeed="11.180000"/>
	<vehicle id="R_62" type="car7" route="route4_3" depart="29" departLane = "1" departSpeed="11.180000"/>
	<vehicle id="L_63" type="car7" route="route1_2" depart="31" departLane = "0" departSpeed="11.180000"/>
	<vehicle id="L_64" type="car8" route="route2_3" depart="31" departLane = "1" departSpeed="11.180000"/>
	<vehicle id="S_65" type="car9" route="route2_4" depart="32" departLane = "1" departSpeed="11.180000"/>
	<vehicle id="S_66" type="car5" route="route3_1" depart="32" departLane = "1" departSpeed="11.180000"/>
	<vehicle id="L_67" type="car9" route="route4_1" depart="32" departLane = "2" departSpeed="11.180000"/>
	<vehicle id="R_68" type="car6" route="route2_1" depart="33" departLane = "0" departSpeed="11.180000"/>
	<vehicle id="S_69" type="car5" route="route1_3" depart="34" departLane = "1" departSpeed="11.180000"/>
	<vehicle id="S_70" type="car8" route="route1_3" depart="35" departLane = "1" departSpeed="11.180000"/>
	<vehicle id="L_71" type="car7" route="route2_3" depart="35" departLane = "2" departSpeed="11.180000"/>
	<vehicle id="L_72" type="car8" route="route4_1" depart="35" departLane = "2" departSpeed="11.180000"/>
	<vehicle id="S_73" type="car5" route="route2_4" depart="36" departLane = "1" departSpeed="11.180000"/>
	<vehicle id="R_74" type="car7" route="route1_4" depart="37" departLane = "1" departSpeed="11.180000"/>
	<vehicle id="R_75" type="car9" route="route2_1" depart="37" departLane = "2" departSpeed="11.180000"/>
	<vehicle id="S_76" type="car6" route="route4_2" depart="37" departLane = "2" departSpeed="11.180000"/>
	<vehicle id="L_77" type="car7" route="route1_2" depart="39" departLane = "1" departSpeed="11.180000"/>
	<vehicle id="R_78" type="car8" route="route1_4" depart="40" departLane = "1" departSpeed="11.180000"/>
	<vehicle id="L_79" type="car8" route="route1_2" depart="41" departLane = "2" departSpeed="11.180000"/>
	<vehicle id="S_80" type="car8" route="route1_3" depart="42" departLane = "2" departSpeed="11.180000"/>
	<vehicle id="L_81" type="car7" route="route2_3" depart="42" departLane = "2" departSpeed="11.180000"/>
	<vehicle id="S_82" type="car5" route="route3_1" depart="42" departLane = "2" departSpeed="11.180000"/>
	<vehicle id="S_83" type="car7" route="route1_3" depart="43" departLane = "0" departSpeed="11.180000"/>
	<vehicle id="S_84" type="car9" route="route2_4" depart="43" departLane = "0" departSpeed="11.180000"/>
	<vehicle id="S_85" type="car7" route="route3_1" depart="43" departLane = "0" departSpeed="11.180000"/>
	<vehicle id="S_86" type="car6" route="route3_1" depart="44" departLane = "2" departSpeed="11.180000"/>
	<vehicle id="S_87" type="car5" route="route4_2" depart="44" departLane = "1" departSpeed="11.180000"/>
	<vehicle id="R_88" type="car5" route="route1_4" depart="45" departLane = "2" departSpeed="11.180000"/>
	<vehicle id="L_89" type="car8" route="route4_1" depart="45" departLane = "2" departSpeed="11.180000"/>
	<vehicle id="L_90" type="car6" route="route2_3" depart="46" departLane = "0" departSpeed="11.180000"/>
	<vehicle id="L_91" type="car5" route="route3_4" depart="46" departLane = "0" departSpeed="11.180000"/>
	<vehicle id="R_92" type="car6" route="route2_1" depart="47" departLane = "1" departSpeed="11.180000"/>
	<vehicle id="S_93" type="car6" route="route3_1" depart="47" departLane = "2" departSpeed="11.180000"/>
	<vehicle id="L_94" type="car9" route="route1_2" depart="48" departLane = "1" departSpeed="11.180000"/>
	<vehicle id="S_95" type="car6" route="route2_4" depart="48" departLane = "2" departSpeed="11.180000"/>
	<vehicle id="S_96" type="car5" route="route2_4" depart="49" departLane = "2" departSpeed="11.180000"/>
	<vehicle id="S_97" type="car9" route="route4_2" depart="49" departLane = "1" departSpeed="11.180000"/>
	<vehicle id="L_98" type="car7" route="route3_4" depart="50" departLane = "0" departSpeed="11.180000"/>
	<vehicle id="R_99" type="car9" route="route4_3" depart="50" departLane = "0" departSpeed="11.180000"/>
	<vehicle id="R_100" type="car6" route="route1_4" depart="51" departLane = "2" departSpeed="11.180000"/>
	<vehicle id="L_101" type="car5" route="route2_3" depart="51" departLane = "0" departSpeed="11.180000"/>
	<vehicle id="R_102" type="car7" route="route3_2" depart="51" departLane = "0" departSpeed="11.180000"/>
	<vehicle id="R_103" type="car9" route="route4_3" depart="51" departLane = "2" departSpeed="11.180000"/>
	<vehicle id="R_104" type="car9" route="route1_4" depart="52" departLane = "1" departSpeed="11.180000"/>
	<vehicle id="S_105" type="car6" route="route2_4" depart="52" departLane = "0" departSpeed="11.180000"/>
	<vehicle id="L_106" type="car6" route="route3_4" depart="52" departLane = "2" departSpeed="11.180000"/>
	<vehicle id="R_107" type="car6" route="route4_3" depart="52" departLane = "2" departSpeed="11.180000"/>
	<vehicle id="S_108" type="car6" route="route3_1" depart="53" departLane = "2" departSpeed="11.180000"/>
	<vehicle id="S_109" type="car8" route="route3_1" depart="56" departLane = "1" departSpeed="11.180000"/>
	<vehicle id="L_110" type="car5" route="route4_1" depart="56" departLane = "1" departSpeed="11.180000"/>
	<vehicle id="R_111" type="car9" route="route2_1" depart="57" departLane = "1" departSpeed="11.180000"/>
	<vehicle id="S_112" type="car5" route="route3_1" depart="57" departLane = "2" departSpeed="11.180000"/>
	<vehicle id="S_113" type="car6" route="route4_2" depart="57" departLane = "1" departSpeed="11.180000"/>
	<vehicle id="S_114" type="car6" route="route4_2" depart="58" departLane = "1" departSpeed="11.180000"/>
	<vehicle id="R_115" type="car8" route="route2_1" depart="59" departLane = "0" departSpeed="11.180000"/>
	<vehicle id="S_116" type="car9" route="route3_1" depart="59" departLane = "0" departSpeed="11.180000"/>
	<vehicle id="L_117" type="car6" route="route4_1" depart="59" departLane = "0" departSpeed="11.180000"/>
	<vehicle id="S_118" type="car6" route="route1_3" depart="60" departLane = "1" departSpeed="11.180000"/>
	<vehicle id="S_119" type="car6" route="route2_4" depart="60" departLane = "0" departSpeed="11.180000"/>
	<vehicle id="S_120" type="car8" route="route4_2" depart="60" departLane = "1" departSpeed="11.180000"/>
	<vehicle id="R_121" type="car9" route="route1_4" depart="61" departLane = "0" departSpeed="11.180000"/>
	<vehicle id="L_122" type="car5" route="route2_3" depart="61" departLane = "2" departSpeed="11.180000"/>
	<vehicle id="L_123" type="car8" route="route1_2" depart="62" departLane = "2" departSpeed="11.180000"/>
	<vehicle id="L_124" type="car6" route="route2_3" depart="62" departLane = "2" departSpeed="11.180000"/>
	<vehicle id="L_125" type="car6" route="route3_4" depart="62" departLane = "1" departSpeed="11.180000"/>
	<vehicle id="L_126" type="car7" route="route3_4" depart="64" departLane = "1" departSpeed="11.180000"/>
	<vehicle id="S_127" type="car9" route="route4_2" depart="64" departLane = "0" departSpeed="11.180000"/>
	<vehicle id="L_128" type="car8" route="route1_2" depart="65" departLane = "2" departSpeed="11.180000"/>
	<vehicle id="L_129" type="car8" route="route3_4" depart="65" departLane = "0" departSpeed="11.180000"/>
	<vehicle id="L_130" type="car6" route="route4_1" depart="65" departLane = "0" departSpeed="11.180000"/>
	<vehicle id="L_131" type="car8" route="route1_2" depart="66" departLane = "0" departSpeed="11.180000"/>
	<vehicle id="L_132" type="car8" route="route2_3" depart="66" departLane = "2" departSpeed="11.180000"/>
	<vehicle id="L_133" type="car6" route="route3_4" depart="66" departLane = "2" departSpeed="11.180000"/>
	<vehicle id="S_134" type="car5" route="route4_2" depart="66" departLane = "1" departSpeed="11.180000"/>
	<vehicle id="S_135" type="car9" route="route2_4" depart="67" departLane = "0" departSpeed="11.180000"/>
	<vehicle id="R_136" type="car5" route="route3_2" depart="68" departLane = "1" departSpeed="11.180000"/>
	<vehicle id="R_137" type="car6" route="route4_3" depart="68" departLane = "0" departSpeed="11.180000"/>
	<vehicle id="L_138" type="car6" route="route1_2" depart="69" departLane = "0" departSpeed="11.180000"/>
	<vehicle id="L_139" type="car9" route="route4_1" depart="70" departLane = "0" departSpeed="11.180000"/>
	<vehicle id="S_140" type="car6" route="route2_4" depart="71" departLane = "1" departSpeed="11.180000"/>
	<vehicle id="L_141" type="car6" route="route3_4" depart="71" departLane = "1" departSpeed="11.180000"/>
	<vehicle id="R_142" type="car8" route="route3_2" depart="72" departLane = "0" departSpeed="11.180000"/>
	<vehicle id="L_143" type="car8" route="route1_2" depart="73" departLane = "2" departSpeed="11.180000"/>
	<vehicle id="R_144" type="car6" route="route3_2" depart="73" departLane = "1" departSpeed="11.180000"/>
	<vehicle id="S_145" type="car8" route="route4_2" depart="73" departLane = "1" departSpeed="11.180000"/>
	<vehicle id="R_146" type="car8" route="route4_3" depart="74" departLane = "0" departSpeed="11.180000"/>
	<vehicle id="L_147" type="car5" route="route4_1" depart="75" departLane = "0" departSpeed="11.180000"/>
	<vehicle id="L_148" type="car9" route="route3_4" depart="76" departLane = "2" departSpeed="11.180000"/>
	<vehicle id="R_149" type="car6" route="route1_4" depart="77" departLane = "0" departSpeed="11.180000"/>
	<vehicle id="L_150" type="car7" route="route4_1" depart="77" departLane = "2" departSpeed="11.180000"/>
	<vehicle id="L_151" type="car8" route="route1_2" depart="78" departLane = "1" departSpeed="11.180000"/>
	<vehicle id="S_152" type="car5" route="route2_4" depart="78" departLane = "1" departSpeed="11.180000"/>
	<vehicle id="S_153" type="car6" route="route4_2" depart="78" departLane = "2" departSpeed="11.180000"/>
	<vehicle id="L_154" type="car6" route="route1_2" depart="79" departLane = "1" departSpeed="11.180000"/>
	<vehicle id="L_155" type="car8" route="route4_1" depart="79" departLane = "2" departSpeed="11.180000"/>
	<vehicle id="L_156" type="car6" route="route2_3" depart="80" departLane = "1" departSpeed="11.180000"/>
	<vehicle id="S_157" type="car5" route="route3_1" depart="80" departLane = "0" departSpeed="11.180000"/>
	<vehicle id="R_158" type="car7" route="route4_3" depart="80" departLane = "0" departSpeed="11.180000"/>
	<vehicle id="L_159" type="car8" route="route2_3" depart="81" departLane = "0" departSpeed="11.180000"/>
	<vehicle id="R_160" type="car8" route="route4_3" depart="81" departLane = "1" departSpeed="11.180000"/>
	<vehicle id="S_161" type="car9" route="route3_1" depart="82" departLane = "0" departSpeed="11.180000"/>
	<vehicle id="S_162" type="car9" route="route4_2" depart="82" departLane = "0" departSpeed="11.180000"/>
	<vehicle id="L_163" type="car6" route="route1_2" depart="83" departLane = "0" departSpeed="11.180000"/>
	<vehicle id="S_164" type="car6" route="route2_4" depart="83" departLane = "2" departSpeed="11.180000"/>
	<vehicle id="R_165" type="car9" route="route3_2" depart="83" departLane = "1" departSpeed="11.180000"/>
	<vehicle id="S_166" type="car5" route="route4_2" depart="83" departLane = "1" departSpeed="11.180000"/>
	<vehicle id="L_167" type="car6" route="route1_2" depart="84" departLane = "1" departSpeed="11.180000"/>
	<vehicle id="S_168" type="car9" route="route2_4" depart="84" departLane = "1" departSpeed="11.180000"/>
	<vehicle id="S_169" type="car9" route="route4_2" depart="84" departLane = "2" departSpeed="11.180000"/>
	<vehicle id="S_170" type="car9" route="route1_3" depart="85" departLane = "0" departSpeed="11.180000"/>
	<vehicle id="S_171" type="car9" route="route3_1" depart="85" departLane = "2" departSpeed="11.180000"/>
	<vehicle id="L_172" type="car5" route="route3_4" depart="86" departLane = "0" departSpeed="11.180000"/>
	<vehicle id="L_173" type="car6" route="route1_2" depart="87" departLane = "1" departSpeed="11.180000"/>
	<vehicle id="S_174" type="car6" route="route2_4" depart="87" departLane = "2" departSpeed="11.180000"/>
	<vehicle id="R_175" type="car6" route="route3_2" depart="87" departLane = "1" departSpeed="11.180000"/>
	<vehicle id="R_176" type="car9" route="route4_3" depart="87" departLane = "1" departSpeed="11.180000"/>
	<vehicle id="R_177" type="car8" route="route1_4" depart="88" departLane = "2" departSpeed="11.180000"/>
	<vehicle id="S_178" type="car7" route="route2_4" depart="88" departLane = "2" departSpeed="11.180000"/>
	<vehicle id="R_179" type="car7" route="route4_3" depart="88" departLane = "1" departSpeed="11.180000"/>
	<vehicle id="L_180" type="car7" route="route1_2" depart="90" departLane = "0" departSpeed="11.180000"/>
	<vehicle id="S_181" type="car6" route="route2_4" depart="90" departLane = "0" departSpeed="11.180000"/>
	<vehicle id="R_182" type="car5" route="route3_2" depart="91" departLane = "1" departSpeed="11.180000"/>
	<vehicle id="R_183" type="car6" route="route1_4" depart="92" departLane = "0" departSpeed="11.180000"/>
	<vehicle id="S_184" type="car6" route="route3_1" depart="92" departLane = "2" departSpeed="11.180000"/>
	<vehicle id="R_185" type="car8" route="route4_3" depart="92" departLane = "2" departSpeed="11.180000"/>
	<vehicle id="S_186" type="car6" route="route1_3" depart="93" departLane = "2" departSpeed="11.180000"/>
	<vehicle id="R_187" type="car9" route="route4_3" depart="94" departLane = "1" departSpeed="11.180000"/>
	<vehicle id="L_188" type="car9" route="route1_2" depart="95" departLane = "2" departSpeed="11.180000"/>
	<vehicle id="L_189" type="car8" route="route4_1" depart="95" departLane = "1" departSpeed="11.180000"/>
	<vehicle id="R_190" type="car8" route="route1_4" depart="96" departLane = "1" departSpeed="11.180000"/>
	<vehicle id="L_191" type="car7" route="route2_3" depart="96" departLane = "0" departSpeed="11.180000"/>
	<vehicle id="S_192" type="car5" route="route2_4" depart="97" departLane = "2" departSpeed="11.180000"/>
	<vehicle id="L_193" type="car9" route="route3_4" depart="97" departLane = "2" departSpeed="11.180000"/>
	<vehicle id="L_194" type="car5" route="route4_1" depart="97" departLane = "2" departSpeed="11.180000"/>
	<vehicle id="S_195" type="car5" route="route2_4" depart="98" departLane = "0" departSpeed="11.180000"/>
	<vehicle id="R_196" type="car7" route="route3_2" depart="98" departLane = "1" departSpeed="11.180000"/>
	<vehicle id="S_197" type="car5" route="route4_2" depart="98" departLane = "1" departSpeed="11.180000"/>
	<vehicle id="R_198" type="car5" route="route3_2" depart="99" departLane = "2" departSpeed="11.180000"/>
	<vehicle id="R_199" type="car6" route="route4_3" depart="99" departLane = "1" departSpeed="11.180000"/>
	<vehicle id="S_200" type="car9" route="route4_2" depart="100" departLane = "1" departSpeed="11.180000"/>
	<vehicle id="S_201" type="car5" route="route3_1" depart="101" departLane = "1" departSpeed="11.180000"/>
	<vehicle id="L_202" type="car8" route="route4_1" depart="101" departLane = "0" departSpeed="11.180000"/>
	<vehicle id="L_203" type="car7" route="route4_1" depart="102" departLane = "1" departSpeed="11.180000"/>
	<vehicle id="S_204" type="car6" route="route1_3" depart="103" departLane = "0" departSpeed="11.180000"/>
	<vehicle id="S_205" type="car9" route="route2_4" depart="104" departLane = "0" departSpeed="11.180000"/>
	<vehicle id="R_206" type="car6" route="route3_2" depart="105" departLane = "2" departSpeed="11.180000"/>
	<vehicle id="R_207" type="car7" route="route1_4" depart="106" departLane = "1" departSpeed="11.180000"/>
	<vehicle id="R_208" type="car8" route="route3_2" depart="106" departLane = "2" departSpeed="11.180000"/>
	<vehicle id="R_209" type="car9" route="route4_3" depart="106" departLane = "1" departSpeed="11.180000"/>
	<vehicle id="R_210" type="car8" route="route4_3" depart="107" departLane = "1" departSpeed="11.180000"/>
	<vehicle id="R_211" type="car9" route="route1_4" depart="108" departLane = "2" departSpeed="11.180000"/>
	<vehicle id="L_212" type="car8" route="route2_3" depart="108" departLane = "1" departSpeed="11.180000"/>
	<vehicle id="S_213" type="car6" route="route4_2" depart="108" departLane = "2" departSpeed="11.180000"/>
	<vehicle id="L_214" type="car8" route="route1_2" depart="109" departLane = "1" departSpeed="11.180000"/>
	<vehicle id="R_215" type="car9" route="route2_1" depart="109" departLane = "1" departSpeed="11.180000"/>
	<vehicle id="R_216" type="car7" route="route4_3" depart="109" departLane = "2" departSpeed="11.180000"/>
	<vehicle id="S_217" type="car8" route="route1_3" depart="110" departLane = "1" departSpeed="11.180000"/>
	<vehicle id="S_218" type="car7" route="route1_3" depart="111" departLane = "0" departSpeed="11.180000"/>
	<vehicle id="R_219" type="car6" route="route2_1" depart="111" departLane = "2" departSpeed="11.180000"/>
	<vehicle id="R_220" type="car6" route="route1_4" depart="112" departLane = "2" departSpeed="11.180000"/>
	<vehicle id="L_221" type="car7" route="route2_3" depart="112" departLane = "1" departSpeed="11.180000"/>
	<vehicle id="R_222" type="car5" route="route4_3" depart="112" departLane = "0" departSpeed="11.180000"/>
	<vehicle id="R_223" type="car8" route="route1_4" depart="113" departLane = "1" departSpeed="11.180000"/>
	<vehicle id="L_224" type="car7" route="route2_3" depart="113" departLane = "0" departSpeed="11.180000"/>
	<vehicle id="L_225" type="car5" route="route4_1" depart="114" departLane = "1" departSpeed="11.180000"/>
	<vehicle id="S_226" type="car7" route="route1_3" depart="115" departLane = "2" departSpeed="11.180000"/>
	<vehicle id="L_227" type="car7" route="route3_4" depart="115" departLane = "0" departSpeed="11.180000"/>
	<vehicle id="R_228" type="car9" route="route1_4" depart="116" departLane = "2" departSpeed="11.180000"/>
	<vehicle id="R_229" type="car9" route="route2_1" depart="116" departLane = "0" departSpeed="11.180000"/>
	<vehicle id="R_230" type="car6" route="route4_3" depart="116" departLane = "1" departSpeed="11.180000"/>
	<vehicle id="R_231" type="car7" route="route4_3" depart="117" departLane = "1" departSpeed="11.180000"/>
	<vehicle id="L_232" type="car5" route="route1_2" depart="118" departLane = "0" departSpeed="11.180000"/>
	<vehicle id="L_233" type="car8" route="route3_4" depart="119" departLane = "0" departSpeed="11.180000"/>
	<vehicle id="S_234" type="car8" route="route4_2" depart="119" departLane = "0" departSpeed="11.180000"/>
	<vehicle id="S_235" type="car6" route="route1_3" depart="120" departLane = "0" departSpeed="11.180000"/>
	<vehicle id="R_236" type="car6" route="route3_2" depart="120" departLane = "2" departSpeed="11.180000"/>
	<vehicle id="S_237" type="car9" route="route1_3" depart="121" departLane = "0" departSpeed="11.180000"/>
	<vehicle id="S_238" type="car9" route="route2_4" depart="121" departLane = "2" departSpeed="11.180000"/>
	<vehicle id="R_239" type="car5" route="route3_2" depart="121" departLane = "2" departSpeed="11.180000"/>
	<vehicle id="S_240" type="car5" route="route4_2" depart="121" departLane = "1" departSpeed="11.180000"/>
	<vehicle id="L_241" type="car9" route="route4_1" depart="122" departLane = "0" departSpeed="11.180000"/>
	<vehicle id="R_242" type="car5" route="route1_4" depart="123" departLane = "1" departSpeed="11.180000"/>
	<vehicle id="S_243" type="car5" route="route3_1" depart="123" departLane = "0" departSpeed="11.180000"/>
	<vehicle id="L_244" type="car5" route="route4_1" depart="123" departLane = "2" departSpeed="11.180000"/>
	<vehicle id="R_245" type="car8" route="route1_4" depart="124" departLane = "1" departSpeed="11.180000"/>
	<vehicle id="R_246" type="car5" route="route1_4" depart="125" departLane = "2" departSpeed="11.180000"/>
	<vehicle id="L_247" type="car8" route="route2_3" depart="125" departLane = "0" departSpeed="11.180000"/>
	<vehicle id="R_248" type="car8" route="route4_3" depart="126" departLane = "2" departSpeed="11.180000"/>
	<vehicle id="R_249" type="car5" route="route1_4" depart="127" departLane = "1" departSpeed="11.180000"/>
	<vehicle id="L_250" type="car8" route="route2_3" depart="127" departLane = "1" departSpeed="11.180000"/>
	<vehicle id="R_251" type="car9" route="route1_4" depart="128" departLane = "2" departSpeed="11.180000"/>
	<vehicle id="S_252" type="car5" route="route3_1" depart="128" departLane = "0" departSpeed="11.180000"/>
	<vehicle id="L_253" type="car9" route="route2_3" depart="129" departLane = "2" departSpeed="11.180000"/>
	<vehicle id="S_254" type="car5" route="route3_1" depart="129" departLane = "2" departSpeed="11.180000"/>
	<vehicle id="L_255" type="car9" route="route4_1" depart="129" departLane = "1" departSpeed="11.180000"/>
	<vehicle id="L_256" type="car7" route="route2_3" depart="130" departLane = "2" departSpeed="11.180000"/>
	<vehicle id="L_257" type="car5" route="route4_1" depart="130" departLane = "1" departSpeed="11.180000"/>
	<vehicle id="L_258" type="car7" route="route1_2" depart="131" departLane = "1" departSpeed="11.180000"/>
	<vehicle id="S_259" type="car8" route="route4_2" depart="131" departLane = "2" departSpeed="11.180000"/>
	<vehicle id="S_260" type="car9" route="route1_3" depart="132" departLane = "0" departSpeed="11.180000"/>
	<vehicle id="L_261" type="car6" route="route3_4" depart="132" departLane = "2" departSpeed="11.180000"/>
	<vehicle id="R_262" type="car6" route="route4_3" depart="132" departLane = "2" departSpeed="11.180000"/>
	<vehicle id="L_263" type="car9" route="route1_2" depart="133" departLane = "1" departSpeed="11.180000"/>
	<vehicle id="L_264" type="car8" route="route2_3" depart="133" departLane = "2" departSpeed="11.180000"/>
	<vehicle id="R_265" type="car8" route="route3_2" depart="133" departLane = "1" departSpeed="11.180000"/>
	<vehicle id="R_266" type="car6" route="route2_1" depart="134" departLane = "1" departSpeed="11.180000"/>
	<vehicle id="R_267" type="car5" route="route3_2" depart="134" departLane = "1" departSpeed="11.180000"/>
	<vehicle id="S_268" type="car6" route="route4_2" depart="134" departLane = "1" departSpeed="11.180000"/>
	<vehicle id="S_269" type="car6" route="route3_1" depart="135" departLane = "1" departSpeed="11.180000"/>
	<vehicle id="L_270" type="car9" route="route4_1" depart="135" departLane = "0" departSpeed="11.180000"/>
	<vehicle id="S_271" type="car5" route="route3_1" depart="136" departLane = "0" departSpeed="11.180000"/>
	<vehicle id="L_272" type="car5" route="route4_1" depart="136" departLane = "1" departSpeed="11.180000"/>