<routes>

	<vType id="car5" accel="200.0" decel="200.0" sigma="0.0" length="5" minGap="3.000000" maxSpeed="11.180000" tau="0.100000" carFollowModel="CACC" color="255,255,255"/>
	<vType id="car6" accel="200.0" decel="200.0" sigma="0.0" length="6" minGap="3.000000" maxSpeed="11.180000" tau="0.100000" carFollowModel="CACC" color="255,255,255"/>
	<vType id="car7" accel="200.0" decel="200.0" sigma="0.0" length="7" minGap="3.000000" maxSpeed="11.180000" tau="0.100000" carFollowModel="CACC" color="255,255,255"/>
	<vType id="car8" accel="200.0" decel="200.0" sigma="0.0" length="8" minGap="3.000000" maxSpeed="11.180000" tau="0.100000" carFollowModel="CACC" color="255,255,255"/>
	<vType id="car9" accel="200.0" decel="200.0" sigma="0.0" length="9" minGap="3.000000" maxSpeed="11.180000" tau="0.100000" carFollowModel="CACC" color="255,255,255"/>

	<route id="route0_1_2" edges=" 001_001_1"/>
	<route id="route0_1_3" edges=" 001_001_1"/>
	<route id="route0_1_4" edges=" 001_001_1"/>
	<route id="route0_2_1" edges=" 001_001_2"/>
	<route id="route0_2_3" edges=" 001_001_2"/>
	<route id="route0_2_4" edges=" 001_001_2"/>
	<route id="route0_3_1" edges=" 001_001_3"/>
	<route id="route0_3_2" edges=" 001_001_3"/>
	<route id="route0_3_4" edges=" 001_001_3"/>
	<route id="route0_4_1" edges=" 001_001_4"/>
	<route id="route0_4_2" edges=" 001_001_4"/>
	<route id="route0_4_3" edges=" 001_001_4"/>
	<route id="route1_1_2" edges=" 002_001_1"/>
	<route id="route1_1_3" edges=" 002_001_1"/>
	<route id="route1_1_4" edges=" 002_001_1"/>
	<route id="route1_2_1" edges=" 002_001_2"/>
	<route id="route1_2_3" edges=" 002_001_2"/>
	<route id="route1_2_4" edges=" 002_001_2"/>
	<route id="route1_3_1" edges=" 002_001_3"/>
	<route id="route1_3_2" edges=" 002_001_3"/>
	<route id="route1_3_4" edges=" 002_001_3"/>
	<route id="route1_4_1" edges=" 002_001_4"/>
	<route id="route1_4_2" edges=" 002_001_4"/>
	<route id="route1_4_3" edges=" 002_001_4"/>
	<route id="route2_1_2" edges=" 003_001_1"/>
	<route id="route2_1_3" edges=" 003_001_1"/>
	<route id="route2_1_4" edges=" 003_001_1"/>
	<route id="route2_2_1" edges=" 003_001_2"/>
	<route id="route2_2_3" edges=" 003_001_2"/>
	<route id="route2_2_4" edges=" 003_001_2"/>
	<route id="route2_3_1" edges=" 003_001_3"/>
	<route id="route2_3_2" edges=" 003_001_3"/>
	<route id="route2_3_4" edges=" 003_001_3"/>
	<route id="route2_4_1" edges=" 003_001_4"/>
	<route id="route2_4_2" edges=" 003_001_4"/>
	<route id="route2_4_3" edges=" 003_001_4"/>

	<vehicle id="SRX_0" type="car8" route="route0_1_3" depart="0" departLane = "1" departSpeed="11.180000"/>
	<vehicle id="SX_1" type="car9" route="route0_2_4" depart="0" departLane = "1" departSpeed="11.180000"/>
	<vehicle id="SX_2" type="car7" route="route0_4_2" depart="0" departLane = "1" departSpeed="11.180000"/>
	<vehicle id="SX_3" type="car6" route="route1_4_2" depart="0" departLane = "1" departSpeed="11.180000"/>
	<vehicle id="SX_4" type="car7" route="route2_2_4" depart="0" departLane = "1" departSpeed="11.180000"/>
	<vehicle id="SRX_5" type="car5" route="route2_3_1" depart="0" departLane = "1" departSpeed="11.180000"/>
	<vehicle id="RX_6" type="car7" route="route2_4_3" depart="0" departLane = "0" departSpeed="11.180000"/>
	<vehicle id="SX_7" type="car9" route="route0_2_4" depart="1" departLane = "1" departSpeed="11.180000"/>
	<vehicle id="RSX_8" type="car5" route="route1_2_1" depart="1" departLane = "0" departSpeed="11.180000"/>
	<vehicle id="SX_9" type="car7" route="route1_4_2" depart="1" departLane = "1" departSpeed="11.180000"/>
	<vehicle id="RLX_10" type="car5" route="route2_2_1" depart="1" departLane = "0" departSpeed="11.180000"/>
	<vehicle id="LX_11" type="car7" route="route2_3_4" depart="1" departLane = "2" departSpeed="11.180000"/>
	<vehicle id="LRX_12" type="car6" route="route2_4_1" depart="1" departLane = "2" departSpeed="11.180000"/>
	<vehicle id="RX_13" type="car9" route="route0_2_1" depart="2" departLane = "0" departSpeed="11.180000"/>
	<vehicle id="RRX_14" type="car9" route="route0_4_3" depart="2" departLane = "0" departSpeed="11.180000"/>
	<vehicle id="RSX_15" type="car8" route="route1_4_3" depart="2" departLane = "0" departSpeed="11.180000"/>
	<vehicle id="RLX_16" type="car5" route="route2_2_1" depart="2" departLane = "0" departSpeed="11.180000"/>
	<vehicle id="SLX_17" type="car7" route="route2_3_1" depart="2" departLane = "1" departSpeed="11.180000"/>
	<vehicle id="RX_18" type="car7" route="route2_4_3" depart="2" departLane = "0" departSpeed="11.180000"/>
	<vehicle id="SSRX_19" type="car5" route="route0_1_3" depart="3" departLane = "1" departSpeed="11.180000"/>
	<vehicle id="RX_20" type="car9" route="route0_2_1" depart="3" departLane = "0" departSpeed="11.180000"/>
	<vehicle id="SX_21" type="car6" route="route0_4_2" depart="3" departLane = "1" departSpeed="11.180000"/>
	<vehicle id="SX_22" type="car8" route="route1_2_4" depart="3" departLane = "1" departSpeed="11.180000"/>
	<vehicle id="LSX_23" type="car7" route="route1_4_1" depart="3" departLane = "2" departSpeed="11.180000"/>
	<vehicle id="SX_24" type="car8" route="route2_2_4" depart="3" departLane = "1" departSpeed="11.180000"/>
	<vehicle id="SRX_25" type="car9" route="route2_3_1" depart="3" departLane = "1" departSpeed="11.180000"/>
	<vehicle id="RX_26" type="car5" route="route2_4_3" depart="3" departLane = "0" departSpeed="11.180000"/>
	<vehicle id="SSSX_27" type="car9" route="route0_1_3" depart="4" departLane = "1" departSpeed="11.180000"/>
	<vehicle id="LRX_28" type="car9" route="route0_2_3" depart="4" departLane = "2" departSpeed="11.180000"/>
	<vehicle id="SX_29" type="car7" route="route0_4_2" depart="4" departLane = "1" departSpeed="11.180000"/>
	<vehicle id="LSX_30" type="car9" route="route1_2_3" depart="4" departLane = "2" departSpeed="11.180000"/>
	<vehicle id="RSX_31" type="car7" route="route1_4_3" depart="4" departLane = "0" departSpeed="11.180000"/>
	<vehicle id="LX_32" type="car7" route="route2_2_3" depart="4" departLane = "2" departSpeed="11.180000"/>
	<vehicle id="LX_33" type="car6" route="route2_3_4" depart="4" departLane = "2" departSpeed="11.180000"/>
	<vehicle id="SX_34" type="car7" route="route2_4_2" depart="4" departLane = "1" departSpeed="11.180000"/>
	<vehicle id="RX_35" type="car5" route="route0_1_4" depart="5" departLane = "0" departSpeed="11.180000"/>
	<vehicle id="SX_36" type="car6" route="route0_2_4" depart="5" departLane = "1" departSpeed="11.180000"/>
	<vehicle id="SX_37" type="car5" route="route0_4_2" depart="5" departLane = "1" departSpeed="11.180000"/>
	<vehicle id="RSX_38" type="car9" route="route1_2_1" depart="5" departLane = "0" departSpeed="11.180000"/>
	<vehicle id="SX_39" type="car9" route="route1_4_2" depart="5" departLane = "1" departSpeed="11.180000"/>
	<vehicle id="SX_40" type="car6" route="route2_2_4" depart="5" departLane = "1" departSpeed="11.180000"/>
	<vehicle id="SSSX_41" type="car9" route="route2_3_1" depart="5" departLane = "1" departSpeed="11.180000"/>
	<vehicle id="SX_42" type="car8" route="route2_4_2" depart="5" departLane = "1" departSpeed="11.180000"/>
	<vehicle id="LX_43" type="car8" route="route0_1_2" depart="6" departLane = "2" departSpeed="11.180000"/>
	<vehicle id="LSSX_44" type="car7" route="route0_2_3" depart="6" departLane = "2" departSpeed="11.180000"/>
	<vehicle id="LX_45" type="car9" route="route0_4_1" depart="6" departLane = "2" departSpeed="11.180000"/>
	<vehicle id="SX_46" type="car9" route="route1_2_4" depart="6" departLane = "1" departSpeed="11.180000"/>
	<vehicle id="RRRX_47" type="car6" route="route1_4_3" depart="6" departLane = "0" departSpeed="11.180000"/>
	<vehicle id="SX_48" type="car7" route="route2_2_4" depart="6" departLane = "1" departSpeed="11.180000"/>
	<vehicle id="LX_49" type="car6" route="route2_3_4" depart="6" departLane = "2" departSpeed="11.180000"/>
	<vehicle id="SX_50" type="car6" route="route2_4_2" depart="6" departLane = "1" departSpeed="11.180000"/>
	<vehicle id="LX_51" type="car5" route="route0_1_2" depart="7" departLane = "2" departSpeed="11.180000"/>
	<vehicle id="SX_52" type="car6" route="route0_2_4" depart="7" departLane = "1" departSpeed="11.180000"/>
	<vehicle id="RSRX_53" type="car6" route="route0_4_3" depart="7" departLane = "0" departSpeed="11.180000"/>
	<vehicle id="RRRX_54" type="car9" route="route1_2_1" depart="7" departLane = "0" departSpeed="11.180000"/>
	<vehicle id="LRLX_55" type="car9" route="route1_4_1" depart="7" departLane = "2" departSpeed="11.180000"/>
	<vehicle id="LX_56" type="car5" route="route2_2_3" depart="7" departLane = "2" departSpeed="11.180000"/>
	<vehicle id="SLX_57" type="car6" route="route2_3_1" depart="7" departLane = "1" departSpeed="11.180000"/>
	<vehicle id="SX_58" type="car9" route="route2_4_2" depart="7" departLane = "1" departSpeed="11.180000"/>
	<vehicle id="RX_59" type="car5" route="route0_1_4" depart="8" departLane = "0" departSpeed="11.180000"/>
	<vehicle id="LRX_60" type="car5" route="route0_2_3" depart="8" departLane = "2" departSpeed="11.180000"/>
	<vehicle id="LX_61" type="car5" route="route0_4_1" depart="8" departLane = "2" departSpeed="11.180000"/>
	<vehicle id="RLRX_62" type="car6" route="route1_2_1" depart="8" departLane = "0" departSpeed="11.180000"/>
	<vehicle id="SX_63" type="car8" route="route1_4_2" depart="8" departLane = "1" departSpeed="11.180000"/>
	<vehicle id="LX_64" type="car5" route="route2_2_3" depart="8" departLane = "2" departSpeed="11.180000"/>
	<vehicle id="RX_65" type="car8" route="route2_4_3" depart="8" departLane = "0" departSpeed="11.180000"/>
	<vehicle id="LX_66" type="car7" route="route0_1_2" depart="9" departLane = "2" departSpeed="11.180000"/>
	<vehicle id="RX_67" type="car5" route="route0_2_1" depart="9" departLane = "0" departSpeed="11.180000"/>
	<vehicle id="LX_68" type="car7" route="route0_4_1" depart="9" departLane = "2" departSpeed="11.180000"/>
	<vehicle id="RRLX_69" type="car5" route="route1_2_1" depart="9" departLane = "0" departSpeed="11.180000"/>
	<vehicle id="RSX_70" type="car5" route="route1_4_3" depart="9" departLane = "0" departSpeed="11.180000"/>
	<vehicle id="RSLX_71" type="car8" route="route2_2_1" depart="9" departLane = "0" departSpeed="11.180000"/>
	<vehicle id="RX_72" type="car7" route="route2_3_2" depart="9" departLane = "0" departSpeed="11.180000"/>
	<vehicle id="SRX_73" type="car9" route="route0_1_3" depart="10" departLane = "1" departSpeed="11.180000"/>
	<vehicle id="LRX_74" type="car6" route="route0_2_3" depart="10" departLane = "2" departSpeed="11.180000"/>
	<vehicle id="SX_75" type="car6" route="route1_2_4" depart="10" departLane = "1" departSpeed="11.180000"/>
	<vehicle id="RLSX_76" type="car7" route="route1_4_3" depart="10" departLane = "0" departSpeed="11.180000"/>
	<vehicle id="RRX_77" type="car5" route="route2_2_1" depart="10" departLane = "0" departSpeed="11.180000"/>
	<vehicle id="RX_78" type="car8" route="route2_3_2" depart="10" departLane = "0" departSpeed="11.180000"/>
	<vehicle id="SX_79" type="car5" route="route2_4_2" depart="10" departLane = "1" departSpeed="11.180000"/>
	<vehicle id="RX_80" type="car8" route="route0_1_4" depart="11" departLane = "0" departSpeed="11.180000"/>
	<vehicle id="SX_81" type="car7" route="route0_4_2" depart="11" departLane = "1" departSpeed="11.180000"/>
	<vehicle id="SX_82" type="car8" route="route1_2_4" depart="11" departLane = "1" departSpeed="11.180000"/>
	<vehicle id="SX_83" type="car7" route="route1_4_2" depart="11" departLane = "1" departSpeed="11.180000"/>
	<vehicle id="LX_84" type="car5" route="route2_2_3" depart="11" departLane = "2" departSpeed="11.180000"/>
	<vehicle id="LX_85" type="car5" route="route2_3_4" depart="11" departLane = "2" departSpeed="11.180000"/>
	<vehicle id="SX_86" type="car5" route="route2_4_2" depart="11" departLane = "1" departSpeed="11.180000"/>
	<vehicle id="LX_87" type="car6" route="route0_1_2" depart="12" departLane = "2" departSpeed="11.180000"/>
	<vehicle id="SX_88" type="car8" route="route0_2_4" depart="12" departLane = "1" departSpeed="11.180000"/>
	<vehicle id="SX_89" type="car7" route="route0_4_2" depart="12" departLane = "1" departSpeed="11.180000"/>
	<vehicle id="LLSX_90" type="car9" route="route1_2_3" depart="12" departLane = "2" departSpeed="11.180000"/>
	<vehicle id="SX_91" type="car9" route="route2_2_4" depart="12" departLane = "1" departSpeed="11.180000"/>
	<vehicle id="SSSX_92" type="car7" route="route2_3_1" depart="12" departLane = "1" departSpeed="11.180000"/>
	<vehicle id="LLX_93" type="car8" route="route2_4_1" depart="12" departLane = "2" departSpeed="11.180000"/>
	<vehicle id="LX_94" type="car5" route="route0_1_2" depart="13" departLane = "2" departSpeed="11.180000"/>
	<vehicle id="LRX_95" type="car6" route="route0_2_3" depart="13" departLane = "2" departSpeed="11.180000"/>
	<vehicle id="LX_96" type="car6" route="route0_4_1" depart="13" departLane = "2" departSpeed="11.180000"/>
	<vehicle id="SX_97" type="car8" route="route1_2_4" depart="13" departLane = "1" departSpeed="11.180000"/>
	<vehicle id="SX_98" type="car9" route="route1_4_2" depart="13" departLane = "1" departSpeed="11.180000"/>
	<vehicle id="LX_99" type="car5" route="route2_2_3" depart="13" departLane = "2" departSpeed="11.180000"/>
	<vehicle id="SSSX_100" type="car9" route="route2_3_1" depart="13" departLane = "1" departSpeed="11.180000"/>
	<vehicle id="LRX_101" type="car5" route="route2_4_1" depart="13" departLane = "2" departSpeed="11.180000"/>
	<vehicle id="LX_102" type="car5" route="route0_1_2" depart="14" departLane = "2" departSpeed="11.180000"/>
	<vehicle id="SX_103" type="car6" route="route0_2_4" depart="14" departLane = "1" departSpeed="11.180000"/>
	<vehicle id="LX_104" type="car8" route="route0_4_1" depart="14" departLane = "2" departSpeed="11.180000"/>
	<vehicle id="RRSX_105" type="car5" route="route1_4_3" depart="14" departLane = "0" departSpeed="11.180000"/>
	<vehicle id="LX_106" type="car8" route="route2_2_3" depart="14" departLane = "2" departSpeed="11.180000"/>
	<vehicle id="LX_107" type="car8" route="route2_3_4" depart="14" departLane = "2" departSpeed="11.180000"/>
	<vehicle id="RX_108" type="car8" route="route2_4_3" depart="14" departLane = "0" departSpeed="11.180000"/>
	<vehicle id="SSRX_109" type="car5" route="route0_1_3" depart="15" departLane = "1" departSpeed="11.180000"/>
	<vehicle id="RX_110" type="car6" route="route0_2_1" depart="15" departLane = "0" departSpeed="11.180000"/>
	<vehicle id="RRSX_111" type="car8" route="route1_2_1" depart="15" departLane = "0" departSpeed="11.180000"/>
	<vehicle id="RRSX_112" type="car6" route="route1_4_3" depart="15" departLane = "0" departSpeed="11.180000"/>
	<vehicle id="LX_113" type="car5" route="route2_2_3" depart="15" departLane = "2" departSpeed="11.180000"/>
	<vehicle id="SX_114" type="car9" route="route2_4_2" depart="15" departLane = "1" departSpeed="11.180000"/>
	<vehicle id="LX_115" type="car5" route="route0_1_2" depart="16" departLane = "2" departSpeed="11.180000"/>
	<vehicle id="LLX_116" type="car6" route="route0_2_3" depart="16" departLane = "2" departSpeed="11.180000"/>
	<vehicle id="RLX_117" type="car7" route="route0_4_3" depart="16" departLane = "0" departSpeed="11.180000"/>
	<vehicle id="SX_118" type="car6" route="route1_2_4" depart="16" departLane = "1" departSpeed="11.180000"/>
	<vehicle id="RRSX_119" type="car8" route="route1_4_3" depart="16" departLane = "0" departSpeed="11.180000"/>
	<vehicle id="RSLX_120" type="car5" route="route2_2_1" depart="16" departLane = "0" departSpeed="11.180000"/>
	<vehicle id="RX_121" type="car8" route="route2_3_2" depart="16" departLane = "0" departSpeed="11.180000"/>
	<vehicle id="RX_122" type="car5" route="route2_4_3" depart="16" departLane = "0" departSpeed="11.180000"/>
	<vehicle id="LX_123" type="car6" route="route0_1_2" depart="17" departLane = "2" departSpeed="11.180000"/>
	<vehicle id="RX_124" type="car7" route="route0_2_1" depart="17" departLane = "0" departSpeed="11.180000"/>
	<vehicle id="RRX_125" type="car6" route="route0_4_3" depart="17" departLane = "0" departSpeed="11.180000"/>
	<vehicle id="RSX_126" type="car5" route="route1_2_1" depart="17" departLane = "0" departSpeed="11.180000"/>
	<vehicle id="LLSX_127" type="car6" route="route1_4_1" depart="17" departLane = "2" departSpeed="11.180000"/>
	<vehicle id="RRX_128" type="car9" route="route2_2_1" depart="17" departLane = "0" departSpeed="11.180000"/>
	<vehicle id="SLX_129" type="car7" route="route2_3_1" depart="17" departLane = "1" departSpeed="11.180000"/>
	<vehicle id="LLX_130" type="car9" route="route0_2_3" depart="18" departLane = "2" departSpeed="11.180000"/>
	<vehicle id="SX_131" type="car8" route="route0_4_2" depart="18" departLane = "1" departSpeed="11.180000"/>
	<vehicle id="LRSX_132" type="car7" route="route1_2_3" depart="18" departLane = "2" departSpeed="11.180000"/>
	<vehicle id="SX_133" type="car6" route="route1_4_2" depart="18" departLane = "1" departSpeed="11.180000"/>
	<vehicle id="RRX_134" type="car9" route="route2_2_1" depart="18" departLane = "0" departSpeed="11.180000"/>
	<vehicle id="SRX_135" type="car6" route="route2_3_1" depart="18" departLane = "1" departSpeed="11.180000"/>
	<vehicle id="SX_136" type="car7" route="route2_4_2" depart="18" departLane = "1" departSpeed="11.180000"/>
	<vehicle id="RX_137" type="car7" route="route0_1_4" depart="19" departLane = "0" departSpeed="11.180000"/>
	<vehicle id="SX_138" type="car7" route="route0_2_4" depart="19" departLane = "1" departSpeed="11.180000"/>
	<vehicle id="SX_139" type="car5" route="route0_4_2" depart="19" departLane = "1" departSpeed="11.180000"/>
	<vehicle id="RLLX_140" type="car6" route="route1_2_1" depart="19" departLane = "0" departSpeed="11.180000"/>
	<vehicle id="RLLX_141" type="car9" route="route1_4_3" depart="19" departLane = "0" departSpeed="11.180000"/>
	<vehicle id="SX_142" type="car8" route="route2_2_4" depart="19" departLane = "1" departSpeed="11.180000"/>
	<vehicle id="LSLX_143" type="car5" route="route2_4_1" depart="19" departLane = "2" departSpeed="11.180000"/>
	<vehicle id="RX_144" type="car6" route="route0_1_4" depart="20" departLane = "0" departSpeed="11.180000"/>
	<vehicle id="LX_145" type="car9" route="route0_4_1" depart="20" departLane = "2" departSpeed="11.180000"/>
	<vehicle id="RLLX_146" type="car7" route="route1_2_1" depart="20" departLane = "0" departSpeed="11.180000"/>
	<vehicle id="SX_147" type="car7" route="route1_4_2" depart="20" departLane = "1" departSpeed="11.180000"/>
	<vehicle id="SX_148" type="car5" route="route2_2_4" depart="20" departLane = "1" departSpeed="11.180000"/>
	<vehicle id="RX_149" type="car8" route="route2_3_2" depart="20" departLane = "0" departSpeed="11.180000"/>
	<vehicle id="LRX_150" type="car7" route="route2_4_1" depart="20" departLane = "2" departSpeed="11.180000"/>
	<vehicle id="LX_151" type="car5" route="route0_1_2" depart="21" departLane = "2" departSpeed="11.180000"/>
	<vehicle id="RX_152" type="car8" route="route0_2_1" depart="21" departLane = "0" departSpeed="11.180000"/>
	<vehicle id="SX_153" type="car7" route="route0_4_2" depart="21" departLane = "1" departSpeed="11.180000"/>
	<vehicle id="RLSX_154" type="car6" route="route1_2_1" depart="21" departLane = "0" departSpeed="11.180000"/>
	<vehicle id="SX_155" type="car8" route="route2_2_4" depart="21" departLane = "1" departSpeed="11.180000"/>
	<vehicle id="SLX_156" type="car5" route="route2_3_1" depart="21" departLane = "1" departSpeed="11.180000"/>
	<vehicle id="SX_157" type="car5" route="route2_4_2" depart="21" departLane = "1" departSpeed="11.180000"/>
	<vehicle id="RX_158" type="car6" route="route0_1_4" depart="22" departLane = "0" departSpeed="11.180000"/>
	<vehicle id="LSLX_159" type="car5" route="route0_2_3" depart="22" departLane = "2" departSpeed="11.180000"/>
	<vehicle id="LX_160" type="car9" route="route0_4_1" depart="22" departLane = "2" departSpeed="11.180000"/>
	<vehicle id="RSX_161" type="car8" route="route1_2_1" depart="22" departLane = "0" departSpeed="11.180000"/>
	<vehicle id="RLX_162" type="car6" route="route2_2_1" depart="22" departLane = "0" departSpeed="11.180000"/>
	<vehicle id="LX_163" type="car7" route="route2_3_4" depart="22" departLane = "2" departSpeed="11.180000"/>
	<vehicle id="LRX_164" type="car7" route="route2_4_1" depart="22" departLane = "2" departSpeed="11.180000"/>
	<vehicle id="LX_165" type="car6" route="route0_1_2" depart="23" departLane = "2" departSpeed="11.180000"/>
	<vehicle id="RX_166" type="car7" route="route0_2_1" depart="23" departLane = "0" departSpeed="11.180000"/>
	<vehicle id="LX_167" type="car5" route="route0_4_1" depart="23" departLane = "2" departSpeed="11.180000"/>
	<vehicle id="LRLX_168" type="car6" route="route1_4_1" depart="23" departLane = "2" departSpeed="11.180000"/>
	<vehicle id="LX_169" type="car8" route="route2_2_3" depart="23" departLane = "2" departSpeed="11.180000"/>
	<vehicle id="LX_170" type="car5" route="route2_3_4" depart="23" departLane = "2" departSpeed="11.180000"/>
	<vehicle id="LX_171" type="car9" route="route0_1_2" depart="24" departLane = "2" departSpeed="11.180000"/>
	<vehicle id="RX_172" type="car6" route="route0_2_1" depart="24" departLane = "0" departSpeed="11.180000"/>
	<vehicle id="LX_173" type="car7" route="route0_4_1" depart="24" departLane = "2" departSpeed="11.180000"/>
	<vehicle id="SX_174" type="car6" route="route1_2_4" depart="24" departLane = "1" departSpeed="11.180000"/>
	<vehicle id="LRLX_175" type="car9" route="route1_4_1" depart="24" departLane = "2" departSpeed="11.180000"/>
	<vehicle id="RX_176" type="car8" route="route2_3_2" depart="24" departLane = "0" departSpeed="11.180000"/>
	<vehicle id="LSRX_177" type="car8" route="route2_4_1" depart="24" departLane = "2" departSpeed="11.180000"/>
	<vehicle id="RX_178" type="car8" route="route0_1_4" depart="25" departLane = "0" departSpeed="11.180000"/>
	<vehicle id="SX_179" type="car7" route="route0_2_4" depart="25" departLane = "1" departSpeed="11.180000"/>
	<vehicle id="LX_180" type="car8" route="route0_4_1" depart="25" departLane = "2" departSpeed="11.180000"/>
	<vehicle id="SX_181" type="car6" route="route1_2_4" depart="25" departLane = "1" departSpeed="11.180000"/>
	<vehicle id="RSX_182" type="car6" route="route1_4_3" depart="25" departLane = "0" departSpeed="11.180000"/>
	<vehicle id="RSRX_183" type="car7" route="route2_2_1" depart="25" departLane = "0" departSpeed="11.180000"/>
	<vehicle id="SRX_184" type="car5" route="route2_3_1" depart="25" departLane = "1" departSpeed="11.180000"/>
	<vehicle id="LRX_185" type="car7" route="route2_4_1" depart="25" departLane = "2" departSpeed="11.180000"/>
	<vehicle id="RX_186" type="car6" route="route0_1_4" depart="26" departLane = "0" departSpeed="11.180000"/>
	<vehicle id="RX_187" type="car9" route="route0_2_1" depart="26" departLane = "0" departSpeed="11.180000"/>
	<vehicle id="RRX_188" type="car8" route="route0_4_3" depart="26" departLane = "0" departSpeed="11.180000"/>
	<vehicle id="RLRX_189" type="car5" route="route1_2_1" depart="26" departLane = "0" departSpeed="11.180000"/>
	<vehicle id="SX_190" type="car5" route="route1_4_2" depart="26" departLane = "1" departSpeed="11.180000"/>
	<vehicle id="LX_191" type="car6" route="route2_2_3" depart="26" departLane = "2" departSpeed="11.180000"/>
	<vehicle id="RX_192" type="car5" route="route2_3_2" depart="26" departLane = "0" departSpeed="11.180000"/>
	<vehicle id="LSRX_193" type="car8" route="route2_4_1" depart="26" departLane = "2" departSpeed="11.180000"/>
	<vehicle id="RX_194" type="car6" route="route0_1_4" depart="27" departLane = "0" departSpeed="11.180000"/>
	<vehicle id="SX_195" type="car8" route="route0_2_4" depart="27" departLane = "1" departSpeed="11.180000"/>
	<vehicle id="SX_196" type="car9" route="route1_2_4" depart="27" departLane = "1" departSpeed="11.180000"/>
	<vehicle id="SX_197" type="car9" route="route1_4_2" depart="27" departLane = "1" departSpeed="11.180000"/>
	<vehicle id="RSLX_198" type="car9" route="route2_2_1" depart="27" departLane = "0" departSpeed="11.180000"/>
	<vehicle id="LX_199" type="car5" route="route2_3_4" depart="27" departLane = "2" departSpeed="11.180000"/>
	<vehicle id="RX_200" type="car6" route="route2_4_3" depart="27" departLane = "0" departSpeed="11.180000"/>
	<vehicle id="RX_201" type="car9" route="route0_1_4" depart="28" departLane = "0" departSpeed="11.180000"/>
	<vehicle id="LRX_202" type="car8" route="route0_2_3" depart="28" departLane = "2" departSpeed="11.180000"/>
	<vehicle id="LX_203" type="car8" route="route0_4_1" depart="28" departLane = "2" departSpeed="11.180000"/>
	<vehicle id="SX_204" type="car6" route="route1_2_4" depart="28" departLane = "1" departSpeed="11.180000"/>
	<vehicle id="LRSX_205" type="car5" route="route1_4_1" depart="28" departLane = "2" departSpeed="11.180000"/>
	<vehicle id="LX_206" type="car5" route="route2_2_3" depart="28" departLane = "2" departSpeed="11.180000"/>
	<vehicle id="RX_207" type="car7" route="route2_3_2" depart="28" departLane = "0" departSpeed="11.180000"/>
	<vehicle id="LSRX_208" type="car7" route="route2_4_1" depart="28" departLane = "2" departSpeed="11.180000"/>
	<vehicle id="RX_209" type="car8" route="route0_1_4" depart="29" departLane = "0" departSpeed="11.180000"/>
	<vehicle id="SX_210" type="car7" route="route0_2_4" depart="29" departLane = "1" departSpeed="11.180000"/>
	<vehicle id="LX_211" type="car8" route="route0_4_1" depart="29" departLane = "2" departSpeed="11.180000"/>
	<vehicle id="LSX_212" type="car5" route="route1_2_3" depart="29" departLane = "2" departSpeed="11.180000"/>
	<vehicle id="SX_213" type="car6" route="route1_4_2" depart="29" departLane = "1" departSpeed="11.180000"/>
	<vehicle id="SX_214" type="car7" route="route2_2_4" depart="29" departLane = "1" departSpeed="11.180000"/>
	<vehicle id="SSSX_215" type="car5" route="route2_3_1" depart="29" departLane = "1" departSpeed="11.180000"/>
	<vehicle id="RX_216" type="car6" route="route2_4_3" depart="29" departLane = "0" departSpeed="11.180000"/>
	<vehicle id="LX_217" type="car9" route="route0_1_2" depart="30" departLane = "2" departSpeed="11.180000"/>
	<vehicle id="SX_218" type="car6" route="route0_2_4" depart="30" departLane = "1" departSpeed="11.180000"/>
	<vehicle id="LX_219" type="car7" route="route0_4_1" depart="30" departLane = "2" departSpeed="11.180000"/>
	<vehicle id="RLLX_220" type="car9" route="route1_2_1" depart="30" departLane = "0" departSpeed="11.180000"/>
	<vehicle id="RLSX_221" type="car8" route="route1_4_3" depart="30" departLane = "0" departSpeed="11.180000"/>
	<vehicle id="LX_222" type="car8" route="route2_2_3" depart="30" departLane = "2" departSpeed="11.180000"/>
	<vehicle id="LX_223" type="car5" route="route2_3_4" depart="30" departLane = "2" departSpeed="11.180000"/>
	<vehicle id="RX_224" type="car9" route="route2_4_3" depart="30" departLane = "0" departSpeed="11.180000"/>
	<vehicle id="LX_225" type="car7" route="route0_1_2" depart="31" departLane = "2" departSpeed="11.180000"/>
	<vehicle id="RX_226" type="car9" route="route0_2_1" depart="31" departLane = "0" departSpeed="11.180000"/>
	<vehicle id="RRX_227" type="car6" route="route0_4_3" depart="31" departLane = "0" departSpeed="11.180000"/>
	<vehicle id="SX_228" type="car8" route="route1_2_4" depart="31" departLane = "1" departSpeed="11.180000"/>
	<vehicle id="SX_229" type="car5" route="route1_4_2" depart="31" departLane = "1" departSpeed="11.180000"/>
	<vehicle id="RSLX_230" type="car8" route="route2_2_1" depart="31" departLane = "0" departSpeed="11.180000"/>
	<vehicle id="RX_231" type="car7" route="route2_3_2" depart="31" departLane = "0" departSpeed="11.180000"/>
	<vehicle id="SX_232" type="car9" route="route2_4_2" depart="31" departLane = "1" departSpeed="11.180000"/>
	<vehicle id="LX_233" type="car6" route="route0_1_2" depart="32" departLane = "2" departSpeed="11.180000"/>
	<vehicle id="SX_234" type="car7" route="route0_4_2" depart="32" departLane = "1" departSpeed="11.180000"/>
	<vehicle id="SX_235" type="car5" route="route1_4_2" depart="32" departLane = "1" departSpeed="11.180000"/>
	<vehicle id="SX_236" type="car6" route="route2_2_4" depart="32" departLane = "1" departSpeed="11.180000"/>
	<vehicle id="RX_237" type="car8" route="route2_3_2" depart="32" departLane = "0" departSpeed="11.180000"/>
	<vehicle id="LLX_238" type="car6" route="route2_4_1" depart="32" departLane = "2" departSpeed="11.180000"/>
	<vehicle id="SRX_239" type="car5" route="route0_1_3" depart="33" departLane = "1" departSpeed="11.180000"/>
	<vehicle id="LRRX_240" type="car7" route="route1_2_3" depart="33" departLane = "2" departSpeed="11.180000"/>
	<vehicle id="LX_241" type="car9" route="route2_3_4" depart="33" departLane = "2" departSpeed="11.180000"/>
	<vehicle id="RX_242" type="car6" route="route2_4_3" depart="33" departLane = "0" departSpeed="11.180000"/>
	<vehicle id="LX_243" type="car9" route="route0_1_2" depart="34" departLane = "2" departSpeed="11.180000"/>
	<vehicle id="RX_244" type="car8" route="route0_2_1" depart="34" departLane = "0" departSpeed="11.180000"/>
	<vehicle id="RLX_245" type="car5" route="route0_4_3" depart="34" departLane = "0" departSpeed="11.180000"/>
	<vehicle id="SX_246" type="car9" route="route1_2_4" depart="34" departLane = "1" departSpeed="11.180000"/>
	<vehicle id="SX_247" type="car5" route="route1_4_2" depart="34" departLane = "1" departSpeed="11.180000"/>
	<vehicle id="SRX_248" type="car5" route="route2_3_1" depart="34" departLane = "1" departSpeed="11.180000"/>
	<vehicle id="LRX_249" type="car6" route="route2_4_1" depart="34" departLane = "2" departSpeed="11.180000"/>
	<vehicle id="RX_250" type="car5" route="route0_1_4" depart="35" departLane = "0" departSpeed="11.180000"/>
	<vehicle id="LLX_251" type="car8" route="route0_2_3" depart="35" departLane = "2" departSpeed="11.180000"/>
	<vehicle id="LX_252" type="car5" route="route0_4_1" depart="35" departLane = "2" departSpeed="11.180000"/>
	<vehicle id="SX_253" type="car7" route="route1_2_4" depart="35" departLane = "1" departSpeed="11.180000"/>
	<vehicle id="RSX_254" type="car5" route="route1_4_3" depart="35" departLane = "0" departSpeed="11.180000"/>