<routes>

	<vType id="car5" accel="100.0" decel="100.0" sigma="0.0" length="5" minGap="3.000000" maxSpeed="11.180000" tau="0.100000" carFollowModel="CACC" color="255,255,255"/>
	<vType id="car6" accel="100.0" decel="100.0" sigma="0.0" length="6" minGap="3.000000" maxSpeed="11.180000" tau="0.100000" carFollowModel="CACC" color="255,255,255"/>
	<vType id="car7" accel="100.0" decel="100.0" sigma="0.0" length="7" minGap="3.000000" maxSpeed="11.180000" tau="0.100000" carFollowModel="CACC" color="255,255,255"/>
	<vType id="car8" accel="100.0" decel="100.0" sigma="0.0" length="8" minGap="3.000000" maxSpeed="11.180000" tau="0.100000" carFollowModel="CACC" color="255,255,255"/>
	<vType id="car9" accel="100.0" decel="100.0" sigma="0.0" length="9" minGap="3.000000" maxSpeed="11.180000" tau="0.100000" carFollowModel="CACC" color="255,255,255"/>

	<route id="route1_2" edges=" 1 -2"/>
	<route id="route1_3" edges=" 1 -3"/>
	<route id="route1_4" edges=" 1 -4"/>
	<route id="route2_1" edges=" 2 -1"/>
	<route id="route2_3" edges=" 2 -3"/>
	<route id="route2_4" edges=" 2 -4"/>
	<route id="route3_1" edges=" 3 -1"/>
	<route id="route3_2" edges=" 3 -2"/>
	<route id="route3_4" edges=" 3 -4"/>
	<route id="route4_1" edges=" 4 -1"/>
	<route id="route4_2" edges=" 4 -2"/>
	<route id="route4_3" edges=" 4 -3"/>

	<vehicle id="S_0" type="car6" route="route2_4" depart="0" departLane = "1" departSpeed="11.180000"/>
	<vehicle id="R_1" type="car8" route="route3_2" depart="0" departLane = "1" departSpeed="11.180000"/>
	<vehicle id="S_2" type="car7" route="route4_2" depart="0" departLane = "1" departSpeed="11.180000"/>
	<vehicle id="S_3" type="car8" route="route2_4" depart="1" departLane = "0" departSpeed="11.180000"/>
	<vehicle id="S_4" type="car9" route="route3_1" depart="1" departLane = "0" departSpeed="11.180000"/>
	<vehicle id="S_5" type="car9" route="route3_1" depart="2" departLane = "2" departSpeed="11.180000"/>
	<vehicle id="S_6" type="car5" route="route4_2" depart="2" departLane = "1" departSpeed="11.180000"/>
	<vehicle id="R_7" type="car9" route="route1_4" depart="3" departLane = "1" departSpeed="11.180000"/>
	<vehicle id="R_8" type="car6" route="route3_2" depart="3" departLane = "2" departSpeed="11.180000"/>
	<vehicle id="S_9" type="car8" route="route1_3" depart="4" departLane = "0" departSpeed="11.180000"/>
	<vehicle id="R_10" type="car8" route="route2_1" depart="4" departLane = "2" departSpeed="11.180000"/>
	<vehicle id="S_11" type="car9" route="route3_1" depart="4" departLane = "1" departSpeed="11.180000"/>
	<vehicle id="S_12" type="car9" route="route4_2" depart="4" departLane = "0" departSpeed="11.180000"/>
	<vehicle id="R_13" type="car6" route="route1_4" depart="5" departLane = "1" departSpeed="11.180000"/>
	<vehicle id="L_14" type="car6" route="route4_1" depart="5" departLane = "0" departSpeed="11.180000"/>
	<vehicle id="L_15" type="car5" route="route1_2" depart="6" departLane = "2" departSpeed="11.180000"/>
	<vehicle id="L_16" type="car7" route="route2_3" depart="6" departLane = "2" departSpeed="11.180000"/>
	<vehicle id="R_17" type="car8" route="route4_3" depart="6" departLane = "2" departSpeed="11.180000"/>
	<vehicle id="R_18" type="car7" route="route1_4" depart="7" departLane = "1" departSpeed="11.180000"/>
	<vehicle id="R_19" type="car6" route="route2_1" depart="7" departLane = "1" departSpeed="11.180000"/>
	<vehicle id="R_20" type="car8" route="route3_2" depart="7" departLane = "0" departSpeed="11.180000"/>
	<vehicle id="R_21" type="car5" route="route4_3" depart="7" departLane = "1" departSpeed="11.180000"/>
	<vehicle id="S_22" type="car9" route="route1_3" depart="8" departLane = "2" departSpeed="11.180000"/>
	<vehicle id="R_23" type="car8" route="route1_4" depart="9" departLane = "1" departSpeed="11.180000"/>
	<vehicle id="L_24" type="car9" route="route2_3" depart="9" departLane = "2" departSpeed="11.180000"/>
	<vehicle id="S_25" type="car7" route="route4_2" depart="9" departLane = "2" departSpeed="11.180000"/>
	<vehicle id="L_26" type="car9" route="route1_2" depart="10" departLane = "1" departSpeed="11.180000"/>
	<vehicle id="R_27" type="car8" route="route3_2" depart="10" departLane = "0" departSpeed="11.180000"/>
	<vehicle id="S_28" type="car9" route="route4_2" depart="10" departLane = "1" departSpeed="11.180000"/>
	<vehicle id="S_29" type="car5" route="route1_3" depart="11" departLane = "2" departSpeed="11.180000"/>
	<vehicle id="L_30" type="car6" route="route2_3" depart="11" departLane = "2" departSpeed="11.180000"/>
	<vehicle id="R_31" type="car8" route="route4_3" depart="11" departLane = "0" departSpeed="11.180000"/>
	<vehicle id="S_32" type="car9" route="route1_3" depart="12" departLane = "1" departSpeed="11.180000"/>
	<vehicle id="S_33" type="car5" route="route2_4" depart="12" departLane = "2" departSpeed="11.180000"/>
	<vehicle id="L_34" type="car7" route="route3_4" depart="12" departLane = "1" departSpeed="11.180000"/>
	<vehicle id="S_35" type="car9" route="route4_2" depart="12" departLane = "1" departSpeed="11.180000"/>
	<vehicle id="S_36" type="car9" route="route1_3" depart="13" departLane = "0" departSpeed="11.180000"/>
	<vehicle id="S_37" type="car6" route="route2_4" depart="13" departLane = "0" departSpeed="11.180000"/>
	<vehicle id="R_38" type="car5" route="route1_4" depart="14" departLane = "1" departSpeed="11.180000"/>
	<vehicle id="R_39" type="car8" route="route2_1" depart="14" departLane = "0" departSpeed="11.180000"/>
	<vehicle id="S_40" type="car7" route="route3_1" depart="14" departLane = "0" departSpeed="11.180000"/>
	<vehicle id="S_41" type="car9" route="route4_2" depart="14" departLane = "0" departSpeed="11.180000"/>
	<vehicle id="R_42" type="car8" route="route1_4" depart="15" departLane = "1" departSpeed="11.180000"/>
	<vehicle id="L_43" type="car9" route="route4_1" depart="15" departLane = "2" departSpeed="11.180000"/>
	<vehicle id="R_44" type="car9" route="route1_4" depart="16" departLane = "2" departSpeed="11.180000"/>
	<vehicle id="R_45" type="car7" route="route2_1" depart="16" departLane = "0" departSpeed="11.180000"/>
	<vehicle id="L_46" type="car7" route="route3_4" depart="16" departLane = "0" departSpeed="11.180000"/>
	<vehicle id="L_47" type="car7" route="route4_1" depart="16" departLane = "1" departSpeed="11.180000"/>
	<vehicle id="L_48" type="car9" route="route1_2" depart="17" departLane = "1" departSpeed="11.180000"/>
	<vehicle id="S_49" type="car5" route="route2_4" depart="17" departLane = "1" departSpeed="11.180000"/>
	<vehicle id="S_50" type="car5" route="route3_1" depart="17" departLane = "1" departSpeed="11.180000"/>
	<vehicle id="S_51" type="car9" route="route4_2" depart="17" departLane = "0" departSpeed="11.180000"/>
	<vehicle id="R_52" type="car6" route="route1_4" depart="18" departLane = "0" departSpeed="11.180000"/>
	<vehicle id="L_53" type="car8" route="route3_4" depart="18" departLane = "1" departSpeed="11.180000"/>
	<vehicle id="L_54" type="car8" route="route4_1" depart="18" departLane = "1" departSpeed="11.180000"/>
	<vehicle id="L_55" type="car6" route="route1_2" depart="19" departLane = "0" departSpeed="11.180000"/>
	<vehicle id="S_56" type="car6" route="route2_4" depart="19" departLane = "1" departSpeed="11.180000"/>
	<vehicle id="L_57" type="car7" route="route4_1" depart="19" departLane = "1" departSpeed="11.180000"/>
	<vehicle id="S_58" type="car8" route="route1_3" depart="20" departLane = "1" departSpeed="11.180000"/>
	<vehicle id="L_59" type="car6" route="route2_3" depart="20" departLane = "1" departSpeed="11.180000"/>
	<vehicle id="L_60" type="car7" route="route3_4" depart="20" departLane = "1" departSpeed="11.180000"/>
	<vehicle id="L_61" type="car9" route="route4_1" depart="20" departLane = "2" departSpeed="11.180000"/>
	<vehicle id="S_62" type="car7" route="route1_3" depart="21" departLane = "0" departSpeed="11.180000"/>
	<vehicle id="L_63" type="car8" route="route1_2" depart="22" departLane = "2" departSpeed="11.180000"/>
	<vehicle id="L_64" type="car9" route="route2_3" depart="22" departLane = "2" departSpeed="11.180000"/>
	<vehicle id="S_65" type="car6" route="route3_1" depart="22" departLane = "2" departSpeed="11.180000"/>
	<vehicle id="R_66" type="car5" route="route4_3" depart="22" departLane = "2" departSpeed="11.180000"/>
	<vehicle id="L_67" type="car5" route="route2_3" depart="23" departLane = "0" departSpeed="11.180000"/>
	<vehicle id="R_68" type="car6" route="route3_2" depart="23" departLane = "2" departSpeed="11.180000"/>
	<vehicle id="L_69" type="car6" route="route1_2" depart="24" departLane = "2" departSpeed="11.180000"/>
	<vehicle id="R_70" type="car7" route="route2_1" depart="24" departLane = "0" departSpeed="11.180000"/>
	<vehicle id="S_71" type="car5" route="route3_1" depart="24" departLane = "2" departSpeed="11.180000"/>
	<vehicle id="R_72" type="car6" route="route4_3" depart="24" departLane = "1" departSpeed="11.180000"/>
	<vehicle id="S_73" type="car5" route="route2_4" depart="25" departLane = "0" departSpeed="11.180000"/>
	<vehicle id="R_74" type="car9" route="route3_2" depart="25" departLane = "1" departSpeed="11.180000"/>
	<vehicle id="L_75" type="car8" route="route2_3" depart="26" departLane = "2" departSpeed="11.180000"/>
	<vehicle id="L_76" type="car9" route="route3_4" depart="26" departLane = "2" departSpeed="11.180000"/>
	<vehicle id="L_77" type="car7" route="route4_1" depart="26" departLane = "1" departSpeed="11.180000"/>
	<vehicle id="L_78" type="car5" route="route1_2" depart="27" departLane = "1" departSpeed="11.180000"/>
	<vehicle id="L_79" type="car8" route="route2_3" depart="27" departLane = "1" departSpeed="11.180000"/>
	<vehicle id="L_80" type="car8" route="route3_4" depart="27" departLane = "1" departSpeed="11.180000"/>
	<vehicle id="S_81" type="car9" route="route4_2" depart="27" departLane = "0" departSpeed="11.180000"/>
	<vehicle id="L_82" type="car7" route="route1_2" depart="28" departLane = "1" departSpeed="11.180000"/>
	<vehicle id="R_83" type="car6" route="route2_1" depart="28" departLane = "1" departSpeed="11.180000"/>
	<vehicle id="S_84" type="car7" route="route3_1" depart="28" departLane = "0" departSpeed="11.180000"/>
	<vehicle id="L_85" type="car6" route="route4_1" depart="28" departLane = "1" departSpeed="11.180000"/>
	<vehicle id="S_86" type="car9" route="route1_3" depart="29" departLane = "0" departSpeed="11.180000"/>
	<vehicle id="L_87" type="car9" route="route2_3" depart="29" departLane = "2" departSpeed="11.180000"/>
	<vehicle id="S_88" type="car8" route="route3_1" depart="29" departLane = "1" departSpeed="11.180000"/>
	<vehicle id="R_89" type="car8" route="route4_3" depart="29" departLane = "0" departSpeed="11.180000"/>
	<vehicle id="L_90" type="car9" route="route3_4" depart="30" departLane = "1" departSpeed="11.180000"/>
	<vehicle id="R_91" type="car5" route="route4_3" depart="30" departLane = "0" departSpeed="11.180000"/>
	<vehicle id="L_92" type="car5" route="route1_2" depart="31" departLane = "0" departSpeed="11.180000"/>
	<vehicle id="R_93" type="car7" route="route2_1" depart="31" departLane = "1" departSpeed="11.180000"/>
	<vehicle id="L_94" type="car8" route="route3_4" depart="31" departLane = "1" departSpeed="11.180000"/>
	<vehicle id="L_95" type="car9" route="route4_1" depart="31" departLane = "1" departSpeed="11.180000"/>
	<vehicle id="S_96" type="car7" route="route1_3" depart="32" departLane = "2" departSpeed="11.180000"/>
	<vehicle id="L_97" type="car9" route="route2_3" depart="32" departLane = "0" departSpeed="11.180000"/>
	<vehicle id="R_98" type="car7" route="route3_2" depart="32" departLane = "2" departSpeed="11.180000"/>
	<vehicle id="L_99" type="car6" route="route4_1" depart="32" departLane = "0" departSpeed="11.180000"/>
	<vehicle id="R_100" type="car9" route="route1_4" depart="33" departLane = "0" departSpeed="11.180000"/>
	<vehicle id="L_101" type="car5" route="route2_3" depart="33" departLane = "0" departSpeed="11.180000"/>
	<vehicle id="R_102" type="car5" route="route3_2" depart="33" departLane = "1" departSpeed="11.180000"/>
	<vehicle id="R_103" type="car8" route="route2_1" depart="34" departLane = "1" departSpeed="11.180000"/>
	<vehicle id="L_104" type="car6" route="route4_1" depart="34" departLane = "2" departSpeed="11.180000"/>
	<vehicle id="S_105" type="car8" route="route1_3" depart="35" departLane = "1" departSpeed="11.180000"/>
	<vehicle id="S_106" type="car6" route="route2_4" depart="35" departLane = "1" departSpeed="11.180000"/>
	<vehicle id="S_107" type="car9" route="route3_1" depart="35" departLane = "2" departSpeed="11.180000"/>
	<vehicle id="L_108" type="car6" route="route1_2" depart="36" departLane = "0" departSpeed="11.180000"/>
	<vehicle id="R_109" type="car7" route="route2_1" depart="36" departLane = "2" departSpeed="11.180000"/>
	<vehicle id="S_110" type="car5" route="route3_1" depart="36" departLane = "2" departSpeed="11.180000"/>
	<vehicle id="R_111" type="car5" route="route4_3" depart="36" departLane = "2" departSpeed="11.180000"/>
	<vehicle id="R_112" type="car5" route="route1_4" depart="37" departLane = "0" departSpeed="11.180000"/>
	<vehicle id="L_113" type="car5" route="route3_4" depart="37" departLane = "0" departSpeed="11.180000"/>
	<vehicle id="R_114" type="car7" route="route4_3" depart="37" departLane = "2" departSpeed="11.180000"/>
	<vehicle id="S_115" type="car8" route="route2_4" depart="38" departLane = "1" departSpeed="11.180000"/>
	<vehicle id="R_116" type="car8" route="route4_3" depart="38" departLane = "2" departSpeed="11.180000"/>
	<vehicle id="S_117" type="car7" route="route2_4" depart="39" departLane = "1" departSpeed="11.180000"/>
	<vehicle id="R_118" type="car6" route="route4_3" depart="39" departLane = "2" departSpeed="11.180000"/>
	<vehicle id="R_119" type="car8" route="route1_4" depart="40" departLane = "2" departSpeed="11.180000"/>
	<vehicle id="R_120" type="car5" route="route2_1" depart="40" departLane = "0" departSpeed="11.180000"/>
	<vehicle id="S_121" type="car5" route="route3_1" depart="40" departLane = "0" departSpeed="11.180000"/>
	<vehicle id="R_122" type="car9" route="route2_1" depart="41" departLane = "1" departSpeed="11.180000"/>
	<vehicle id="S_123" type="car5" route="route3_1" depart="41" departLane = "1" departSpeed="11.180000"/>
	<vehicle id="S_124" type="car5" route="route4_2" depart="41" departLane = "2" departSpeed="11.180000"/>
	<vehicle id="S_125" type="car7" route="route1_3" depart="42" departLane = "1" departSpeed="11.180000"/>
	<vehicle id="L_126" type="car5" route="route3_4" depart="42" departLane = "2" departSpeed="11.180000"/>
	<vehicle id="L_127" type="car6" route="route1_2" depart="43" departLane = "1" departSpeed="11.180000"/>
	<vehicle id="S_128" type="car5" route="route2_4" depart="43" departLane = "1" departSpeed="11.180000"/>
	<vehicle id="L_129" type="car8" route="route3_4" depart="43" departLane = "1" departSpeed="11.180000"/>
	<vehicle id="S_130" type="car6" route="route4_2" depart="43" departLane = "1" departSpeed="11.180000"/>
	<vehicle id="S_131" type="car7" route="route1_3" depart="44" departLane = "2" departSpeed="11.180000"/>
	<vehicle id="L_132" type="car8" route="route3_4" depart="44" departLane = "1" departSpeed="11.180000"/>
	<vehicle id="L_133" type="car8" route="route4_1" depart="44" departLane = "0" departSpeed="11.180000"/>
	<vehicle id="S_134" type="car5" route="route1_3" depart="45" departLane = "2" departSpeed="11.180000"/>
	<vehicle id="S_135" type="car9" route="route3_1" depart="45" departLane = "2" departSpeed="11.180000"/>
	<vehicle id="S_136" type="car7" route="route4_2" depart="45" departLane = "2" departSpeed="11.180000"/>
	<vehicle id="S_137" type="car8" route="route1_3" depart="46" departLane = "0" departSpeed="11.180000"/>
	<vehicle id="S_138" type="car7" route="route2_4" depart="46" departLane = "2" departSpeed="11.180000"/>
	<vehicle id="S_139" type="car5" route="route3_1" depart="46" departLane = "0" departSpeed="11.180000"/>
	<vehicle id="R_140" type="car9" route="route1_4" depart="47" departLane = "2" departSpeed="11.180000"/>
	<vehicle id="S_141" type="car6" route="route2_4" depart="47" departLane = "1" departSpeed="11.180000"/>
	<vehicle id="S_142" type="car9" route="route3_1" depart="47" departLane = "2" departSpeed="11.180000"/>
	<vehicle id="R_143" type="car7" route="route4_3" depart="47" departLane = "2" departSpeed="11.180000"/>
	<vehicle id="R_144" type="car7" route="route1_4" depart="48" departLane = "0" departSpeed="11.180000"/>
	<vehicle id="R_145" type="car9" route="route2_1" depart="48" departLane = "2" departSpeed="11.180000"/>
	<vehicle id="L_146" type="car8" route="route3_4" depart="48" departLane = "0" departSpeed="11.180000"/>
	<vehicle id="R_147" type="car7" route="route4_3" depart="48" departLane = "0" departSpeed="11.180000"/>
	<vehicle id="R_148" type="car9" route="route1_4" depart="49" departLane = "0" departSpeed="11.180000"/>
	<vehicle id="R_149" type="car5" route="route3_2" depart="49" departLane = "0" departSpeed="11.180000"/>
	<vehicle id="L_150" type="car6" route="route4_1" depart="49" departLane = "0" departSpeed="11.180000"/>
	<vehicle id="R_151" type="car9" route="route1_4" depart="50" departLane = "2" departSpeed="11.180000"/>
	<vehicle id="L_152" type="car6" route="route2_3" depart="50" departLane = "2" departSpeed="11.180000"/>
	<vehicle id="S_153" type="car9" route="route3_1" depart="50" departLane = "2" departSpeed="11.180000"/>
	<vehicle id="L_154" type="car6" route="route4_1" depart="50" departLane = "0" departSpeed="11.180000"/>
	<vehicle id="R_155" type="car9" route="route1_4" depart="51" departLane = "1" departSpeed="11.180000"/>
	<vehicle id="R_156" type="car6" route="route2_1" depart="51" departLane = "0" departSpeed="11.180000"/>
	<vehicle id="S_157" type="car6" route="route4_2" depart="51" departLane = "2" departSpeed="11.180000"/>
	<vehicle id="S_158" type="car9" route="route1_3" depart="52" departLane = "0" departSpeed="11.180000"/>
	<vehicle id="L_159" type="car9" route="route3_4" depart="52" departLane = "0" departSpeed="11.180000"/>
	<vehicle id="R_160" type="car5" route="route4_3" depart="52" departLane = "1" departSpeed="11.180000"/>
	<vehicle id="S_161" type="car8" route="route4_2" depart="53" departLane = "0" departSpeed="11.180000"/>
	<vehicle id="R_162" type="car5" route="route1_4" depart="54" departLane = "1" departSpeed="11.180000"/>
	<vehicle id="R_163" type="car5" route="route2_1" depart="54" departLane = "0" departSpeed="11.180000"/>
	<vehicle id="R_164" type="car7" route="route3_2" depart="54" departLane = "1" departSpeed="11.180000"/>
	<vehicle id="R_165" type="car7" route="route4_3" depart="54" departLane = "0" departSpeed="11.180000"/>
	<vehicle id="L_166" type="car7" route="route1_2" depart="55" departLane = "0" departSpeed="11.180000"/>
	<vehicle id="S_167" type="car5" route="route2_4" depart="55" departLane = "2" departSpeed="11.180000"/>
	<vehicle id="R_168" type="car8" route="route3_2" depart="55" departLane = "1" departSpeed="11.180000"/>
	<vehicle id="L_169" type="car6" route="route4_1" depart="55" departLane = "0" departSpeed="11.180000"/>
	<vehicle id="S_170" type="car8" route="route1_3" depart="56" departLane = "2" departSpeed="11.180000"/>
	<vehicle id="L_171" type="car8" route="route2_3" depart="56" departLane = "1" departSpeed="11.180000"/>
	<vehicle id="L_172" type="car6" route="route3_4" depart="56" departLane = "1" departSpeed="11.180000"/>
	<vehicle id="L_173" type="car6" route="route4_1" depart="56" departLane = "1" departSpeed="11.180000"/>
	<vehicle id="R_174" type="car5" route="route1_4" depart="57" departLane = "2" departSpeed="11.180000"/>
	<vehicle id="L_175" type="car7" route="route2_3" depart="57" departLane = "1" departSpeed="11.180000"/>
	<vehicle id="S_176" type="car8" route="route3_1" depart="57" departLane = "0" departSpeed="11.180000"/>
	<vehicle id="R_177" type="car6" route="route4_3" depart="57" departLane = "0" departSpeed="11.180000"/>
	<vehicle id="R_178" type="car7" route="route1_4" depart="58" departLane = "1" departSpeed="11.180000"/>
	<vehicle id="L_179" type="car7" route="route2_3" depart="58" departLane = "2" departSpeed="11.180000"/>
	<vehicle id="L_180" type="car6" route="route3_4" depart="58" departLane = "2" departSpeed="11.180000"/>
	<vehicle id="S_181" type="car9" route="route4_2" depart="58" departLane = "0" departSpeed="11.180000"/>
	<vehicle id="S_182" type="car5" route="route1_3" depart="59" departLane = "2" departSpeed="11.180000"/>
	<vehicle id="L_183" type="car7" route="route2_3" depart="59" departLane = "1" departSpeed="11.180000"/>
	<vehicle id="R_184" type="car6" route="route3_2" depart="59" departLane = "0" departSpeed="11.180000"/>
	<vehicle id="S_185" type="car9" route="route4_2" depart="59" departLane = "2" departSpeed="11.180000"/>
	<vehicle id="S_186" type="car8" route="route1_3" depart="60" departLane = "0" departSpeed="11.180000"/>
	<vehicle id="S_187" type="car7" route="route2_4" depart="60" departLane = "1" departSpeed="11.180000"/>
	<vehicle id="R_188" type="car5" route="route3_2" depart="60" departLane = "2" departSpeed="11.180000"/>
	<vehicle id="L_189" type="car7" route="route4_1" depart="60" departLane = "0" departSpeed="11.180000"/>
	<vehicle id="S_190" type="car7" route="route1_3" depart="61" departLane = "1" departSpeed="11.180000"/>
	<vehicle id="L_191" type="car7" route="route2_3" depart="61" departLane = "1" departSpeed="11.180000"/>
	<vehicle id="L_192" type="car6" route="route3_4" depart="61" departLane = "2" departSpeed="11.180000"/>
	<vehicle id="R_193" type="car5" route="route4_3" depart="61" departLane = "1" departSpeed="11.180000"/>
	<vehicle id="R_194" type="car7" route="route1_4" depart="62" departLane = "1" departSpeed="11.180000"/>
	<vehicle id="S_195" type="car6" route="route2_4" depart="62" departLane = "2" departSpeed="11.180000"/>
	<vehicle id="L_196" type="car7" route="route3_4" depart="62" departLane = "1" departSpeed="11.180000"/>
	<vehicle id="L_197" type="car8" route="route4_1" depart="62" departLane = "0" departSpeed="11.180000"/>
	<vehicle id="L_198" type="car8" route="route1_2" depart="63" departLane = "0" departSpeed="11.180000"/>
	<vehicle id="S_199" type="car5" route="route2_4" depart="63" departLane = "1" departSpeed="11.180000"/>
	<vehicle id="L_200" type="car5" route="route3_4" depart="63" departLane = "2" departSpeed="11.180000"/>
	<vehicle id="R_201" type="car9" route="route4_3" depart="63" departLane = "0" departSpeed="11.180000"/>
	<vehicle id="S_202" type="car8" route="route1_3" depart="64" departLane = "2" departSpeed="11.180000"/>
	<vehicle id="L_203" type="car8" route="route2_3" depart="64" departLane = "0" departSpeed="11.180000"/>
	<vehicle id="L_204" type="car6" route="route1_2" depart="65" departLane = "2" departSpeed="11.180000"/>
	<vehicle id="L_205" type="car5" route="route2_3" depart="65" departLane = "0" departSpeed="11.180000"/>
	<vehicle id="R_206" type="car5" route="route3_2" depart="65" departLane = "0" departSpeed="11.180000"/>
	<vehicle id="S_207" type="car7" route="route4_2" depart="65" departLane = "2" departSpeed="11.180000"/>
	<vehicle id="S_208" type="car7" route="route1_3" depart="66" departLane = "2" departSpeed="11.180000"/>
	<vehicle id="R_209" type="car7" route="route2_1" depart="66" departLane = "2" departSpeed="11.180000"/>
	<vehicle id="R_210" type="car9" route="route3_2" depart="66" departLane = "1" departSpeed="11.180000"/>
	<vehicle id="L_211" type="car5" route="route4_1" depart="66" departLane = "0" departSpeed="11.180000"/>
	<vehicle id="S_212" type="car6" route="route2_4" depart="67" departLane = "0" departSpeed="11.180000"/>
	<vehicle id="L_213" type="car5" route="route3_4" depart="67" departLane = "0" departSpeed="11.180000"/>
	<vehicle id="L_214" type="car5" route="route4_1" depart="67" departLane = "1" departSpeed="11.180000"/>
	<vehicle id="R_215" type="car8" route="route1_4" depart="68" departLane = "1" departSpeed="11.180000"/>
	<vehicle id="L_216" type="car9" route="route2_3" depart="68" departLane = "0" departSpeed="11.180000"/>
	<vehicle id="S_217" type="car8" route="route3_1" depart="68" departLane = "1" departSpeed="11.180000"/>
	<vehicle id="S_218" type="car9" route="route4_2" depart="68" departLane = "2" departSpeed="11.180000"/>
	<vehicle id="R_219" type="car8" route="route3_2" depart="69" departLane = "1" departSpeed="11.180000"/>
	<vehicle id="S_220" type="car5" route="route4_2" depart="69" departLane = "0" departSpeed="11.180000"/>
	<vehicle id="R_221" type="car8" route="route1_4" depart="70" departLane = "0" departSpeed="11.180000"/>
	<vehicle id="L_222" type="car8" route="route2_3" depart="70" departLane = "2" departSpeed="11.180000"/>
	<vehicle id="R_223" type="car7" route="route4_3" depart="70" departLane = "2" departSpeed="11.180000"/>
	<vehicle id="L_224" type="car9" route="route1_2" depart="71" departLane = "0" departSpeed="11.180000"/>
	<vehicle id="R_225" type="car7" route="route2_1" depart="71" departLane = "0" departSpeed="11.180000"/>
	<vehicle id="R_226" type="car5" route="route3_2" depart="71" departLane = "0" departSpeed="11.180000"/>
	<vehicle id="L_227" type="car7" route="route4_1" depart="71" departLane = "0" departSpeed="11.180000"/>
	<vehicle id="R_228" type="car8" route="route1_4" depart="72" departLane = "0" departSpeed="11.180000"/>
	<vehicle id="R_229" type="car9" route="route2_1" depart="72" departLane = "0" departSpeed="11.180000"/>
	<vehicle id="L_230" type="car8" route="route3_4" depart="72" departLane = "1" departSpeed="11.180000"/>
	<vehicle id="L_231" type="car5" route="route4_1" depart="72" departLane = "2" departSpeed="11.180000"/>
	<vehicle id="S_232" type="car5" route="route1_3" depart="73" departLane = "2" departSpeed="11.180000"/>
	<vehicle id="L_233" type="car5" route="route4_1" depart="73" departLane = "0" departSpeed="11.180000"/>
	<vehicle id="L_234" type="car7" route="route1_2" depart="74" departLane = "2" departSpeed="11.180000"/>
	<vehicle id="S_235" type="car7" route="route3_1" depart="74" departLane = "0" departSpeed="11.180000"/>
	<vehicle id="S_236" type="car5" route="route4_2" depart="74" departLane = "2" departSpeed="11.180000"/>
	<vehicle id="S_237" type="car5" route="route1_3" depart="75" departLane = "1" departSpeed="11.180000"/>
	<vehicle id="L_238" type="car7" route="route4_1" depart="75" departLane = "1" departSpeed="11.180000"/>
	<vehicle id="S_239" type="car6" route="route1_3" depart="76" departLane = "1" departSpeed="11.180000"/>
	<vehicle id="R_240" type="car8" route="route2_1" depart="76" departLane = "1" departSpeed="11.180000"/>
	<vehicle id="L_241" type="car6" route="route3_4" depart="76" departLane = "0" departSpeed="11.180000"/>
	<vehicle id="S_242" type="car5" route="route4_2" depart="76" departLane = "2" departSpeed="11.180000"/>
	<vehicle id="L_243" type="car6" route="route1_2" depart="77" departLane = "0" departSpeed="11.180000"/>
	<vehicle id="R_244" type="car8" route="route2_1" depart="77" departLane = "1" departSpeed="11.180000"/>
	<vehicle id="S_245" type="car5" route="route3_1" depart="77" departLane = "2" departSpeed="11.180000"/>
	<vehicle id="S_246" type="car8" route="route4_2" depart="77" departLane = "0" departSpeed="11.180000"/>
	<vehicle id="L_247" type="car8" route="route1_2" depart="78" departLane = "2" departSpeed="11.180000"/>
	<vehicle id="L_248" type="car9" route="route2_3" depart="78" departLane = "0" departSpeed="11.180000"/>
	<vehicle id="S_249" type="car8" route="route3_1" depart="78" departLane = "1" departSpeed="11.180000"/>
	<vehicle id="S_250" type="car6" route="route4_2" depart="78" departLane = "1" departSpeed="11.180000"/>
	<vehicle id="R_251" type="car7" route="route1_4" depart="79" departLane = "2" departSpeed="11.180000"/>
	<vehicle id="R_252" type="car5" route="route2_1" depart="79" departLane = "1" departSpeed="11.180000"/>
	<vehicle id="R_253" type="car9" route="route3_2" depart="79" departLane = "1" departSpeed="11.180000"/>
	<vehicle id="R_254" type="car8" route="route4_3" depart="79" departLane = "0" departSpeed="11.180000"/>
	<vehicle id="L_255" type="car7" route="route1_2" depart="80" departLane = "2" departSpeed="11.180000"/>
	<vehicle id="S_256" type="car8" route="route2_4" depart="80" departLane = "0" departSpeed="11.180000"/>
	<vehicle id="S_257" type="car7" route="route4_2" depart="80" departLane = "1" departSpeed="11.180000"/>
	<vehicle id="R_258" type="car5" route="route1_4" depart="81" departLane = "2" departSpeed="11.180000"/>
	<vehicle id="L_259" type="car7" route="route3_4" depart="81" departLane = "1" departSpeed="11.180000"/>
	<vehicle id="L_260" type="car8" route="route4_1" depart="81" departLane = "0" departSpeed="11.180000"/>
	<vehicle id="L_261" type="car9" route="route1_2" depart="82" departLane = "1" departSpeed="11.180000"/>
	<vehicle id="L_262" type="car9" route="route2_3" depart="82" departLane = "0" departSpeed="11.180000"/>
	<vehicle id="R_263" type="car8" route="route3_2" depart="82" departLane = "1" departSpeed="11.180000"/>
	<vehicle id="R_264" type="car5" route="route1_4" depart="83" departLane = "1" departSpeed="11.180000"/>
	<vehicle id="R_265" type="car9" route="route2_1" depart="83" departLane = "2" departSpeed="11.180000"/>
	<vehicle id="L_266" type="car8" route="route3_4" depart="83" departLane = "1" departSpeed="11.180000"/>
	<vehicle id="S_267" type="car8" route="route4_2" depart="83" departLane = "0" departSpeed="11.180000"/>
	<vehicle id="L_268" type="car7" route="route1_2" depart="84" departLane = "1" departSpeed="11.180000"/>
	<vehicle id="S_269" type="car5" route="route2_4" depart="84" departLane = "0" departSpeed="11.180000"/>
	<vehicle id="R_270" type="car5" route="route3_2" depart="84" departLane = "0" departSpeed="11.180000"/>
	<vehicle id="R_271" type="car5" route="route4_3" depart="84" departLane = "1" departSpeed="11.180000"/>
	<vehicle id="S_272" type="car7" route="route1_3" depart="85" departLane = "2" departSpeed="11.180000"/>
	<vehicle id="R_273" type="car6" route="route3_2" depart="85" departLane = "1" departSpeed="11.180000"/>