<routes>

	<vType id="car5" accel="100.0" decel="100.0" sigma="0.0" length="5" minGap="3.000000" maxSpeed="11.180000" tau="0.100000" carFollowModel="CACC" color="255,255,255"/>
	<vType id="car6" accel="100.0" decel="100.0" sigma="0.0" length="6" minGap="3.000000" maxSpeed="11.180000" tau="0.100000" carFollowModel="CACC" color="255,255,255"/>
	<vType id="car7" accel="100.0" decel="100.0" sigma="0.0" length="7" minGap="3.000000" maxSpeed="11.180000" tau="0.100000" carFollowModel="CACC" color="255,255,255"/>
	<vType id="car8" accel="100.0" decel="100.0" sigma="0.0" length="8" minGap="3.000000" maxSpeed="11.180000" tau="0.100000" carFollowModel="CACC" color="255,255,255"/>
	<vType id="car9" accel="100.0" decel="100.0" sigma="0.0" length="9" minGap="3.000000" maxSpeed="11.180000" tau="0.100000" carFollowModel="CACC" color="255,255,255"/>

	<route id="route0_1_2" edges=" 001_001_1"/>
	<route id="route0_1_3" edges=" 001_001_1"/>
	<route id="route0_1_4" edges=" 001_001_1"/>
	<route id="route0_2_1" edges=" 001_001_2"/>
	<route id="route0_2_3" edges=" 001_001_2"/>
	<route id="route0_2_4" edges=" 001_001_2"/>
	<route id="route0_3_1" edges=" 001_001_3"/>
	<route id="route0_3_2" edges=" 001_001_3"/>
	<route id="route0_3_4" edges=" 001_001_3"/>
	<route id="route0_4_1" edges=" 001_001_4"/>
	<route id="route0_4_2" edges=" 001_001_4"/>
	<route id="route0_4_3" edges=" 001_001_4"/>
	<route id="route1_1_2" edges=" 002_001_1"/>
	<route id="route1_1_3" edges=" 002_001_1"/>
	<route id="route1_1_4" edges=" 002_001_1"/>
	<route id="route1_2_1" edges=" 002_001_2"/>
	<route id="route1_2_3" edges=" 002_001_2"/>
	<route id="route1_2_4" edges=" 002_001_2"/>
	<route id="route1_3_1" edges=" 002_001_3"/>
	<route id="route1_3_2" edges=" 002_001_3"/>
	<route id="route1_3_4" edges=" 002_001_3"/>
	<route id="route1_4_1" edges=" 002_001_4"/>
	<route id="route1_4_2" edges=" 002_001_4"/>
	<route id="route1_4_3" edges=" 002_001_4"/>

	<vehicle id="LX_0" type="car7" route="route0_1_2" depart="0" departLane = "2" departSpeed="11.180000"/>
	<vehicle id="RX_1" type="car9" route="route0_2_1" depart="0" departLane = "0" departSpeed="11.180000"/>
	<vehicle id="LX_2" type="car8" route="route0_4_1" depart="0" departLane = "2" departSpeed="11.180000"/>
	<vehicle id="RS_3" type="car6" route="route1_2_1" depart="0" departLane = "0" departSpeed="11.180000"/>
	<vehicle id="SR_4" type="car6" route="route1_3_1" depart="0" departLane = "1" departSpeed="11.180000"/>
	<vehicle id="SX_5" type="car8" route="route1_4_2" depart="0" departLane = "1" departSpeed="11.180000"/>
	<vehicle id="LX_6" type="car8" route="route0_1_2" depart="1" departLane = "2" departSpeed="11.180000"/>
	<vehicle id="LL_7" type="car9" route="route0_2_3" depart="1" departLane = "2" departSpeed="11.180000"/>
	<vehicle id="RS_8" type="car6" route="route0_4_3" depart="1" departLane = "0" departSpeed="11.180000"/>
	<vehicle id="LX_9" type="car6" route="route1_2_3" depart="1" departLane = "2" departSpeed="11.180000"/>
	<vehicle id="RX_10" type="car6" route="route1_4_3" depart="1" departLane = "0" departSpeed="11.180000"/>
	<vehicle id="LX_11" type="car5" route="route0_1_2" depart="2" departLane = "2" departSpeed="11.180000"/>
	<vehicle id="SX_12" type="car9" route="route0_2_4" depart="2" departLane = "1" departSpeed="11.180000"/>
	<vehicle id="LX_13" type="car6" route="route0_4_1" depart="2" departLane = "2" departSpeed="11.180000"/>
	<vehicle id="SX_14" type="car5" route="route1_2_4" depart="2" departLane = "1" departSpeed="11.180000"/>
	<vehicle id="SS_15" type="car6" route="route1_3_1" depart="2" departLane = "1" departSpeed="11.180000"/>
	<vehicle id="LX_16" type="car6" route="route0_1_2" depart="3" departLane = "2" departSpeed="11.180000"/>
	<vehicle id="LL_17" type="car6" route="route0_2_3" depart="3" departLane = "2" departSpeed="11.180000"/>
	<vehicle id="LX_18" type="car6" route="route0_4_1" depart="3" departLane = "2" departSpeed="11.180000"/>
	<vehicle id="LX_19" type="car6" route="route1_2_3" depart="3" departLane = "2" departSpeed="11.180000"/>
	<vehicle id="LR_20" type="car7" route="route1_4_1" depart="3" departLane = "2" departSpeed="11.180000"/>
	<vehicle id="RX_21" type="car8" route="route0_1_4" depart="4" departLane = "0" departSpeed="11.180000"/>
	<vehicle id="LL_22" type="car6" route="route0_2_3" depart="4" departLane = "2" departSpeed="11.180000"/>
	<vehicle id="LX_23" type="car7" route="route0_4_1" depart="4" departLane = "2" departSpeed="11.180000"/>
	<vehicle id="RR_24" type="car9" route="route1_2_1" depart="4" departLane = "0" departSpeed="11.180000"/>
	<vehicle id="LX_25" type="car9" route="route1_3_4" depart="4" departLane = "2" departSpeed="11.180000"/>
	<vehicle id="SX_26" type="car7" route="route1_4_2" depart="4" departLane = "1" departSpeed="11.180000"/>
	<vehicle id="LX_27" type="car7" route="route0_1_2" depart="5" departLane = "2" departSpeed="11.180000"/>
	<vehicle id="SX_28" type="car8" route="route0_2_4" depart="5" departLane = "1" departSpeed="11.180000"/>
	<vehicle id="SX_29" type="car6" route="route0_4_2" depart="5" departLane = "1" departSpeed="11.180000"/>
	<vehicle id="RL_30" type="car6" route="route1_2_1" depart="5" departLane = "0" departSpeed="11.180000"/>
	<vehicle id="RX_31" type="car5" route="route1_3_2" depart="5" departLane = "0" departSpeed="11.180000"/>
	<vehicle id="RX_32" type="car8" route="route0_1_4" depart="6" departLane = "0" departSpeed="11.180000"/>
	<vehicle id="RX_33" type="car8" route="route0_2_1" depart="6" departLane = "0" departSpeed="11.180000"/>
	<vehicle id="LX_34" type="car9" route="route0_4_1" depart="6" departLane = "2" departSpeed="11.180000"/>
	<vehicle id="SX_35" type="car8" route="route1_2_4" depart="6" departLane = "1" departSpeed="11.180000"/>
	<vehicle id="RX_36" type="car6" route="route1_3_2" depart="6" departLane = "0" departSpeed="11.180000"/>
	<vehicle id="SX_37" type="car6" route="route1_4_2" depart="6" departLane = "1" departSpeed="11.180000"/>
	<vehicle id="RX_38" type="car6" route="route0_1_4" depart="7" departLane = "0" departSpeed="11.180000"/>
	<vehicle id="SX_39" type="car7" route="route1_2_4" depart="7" departLane = "1" departSpeed="11.180000"/>
	<vehicle id="RX_40" type="car7" route="route1_3_2" depart="7" departLane = "0" departSpeed="11.180000"/>
	<vehicle id="SX_41" type="car5" route="route1_4_2" depart="7" departLane = "1" departSpeed="11.180000"/>
	<vehicle id="LX_42" type="car7" route="route0_1_2" depart="8" departLane = "2" departSpeed="11.180000"/>
	<vehicle id="LL_43" type="car5" route="route0_2_3" depart="8" departLane = "2" departSpeed="11.180000"/>
	<vehicle id="LX_44" type="car5" route="route0_4_1" depart="8" departLane = "2" departSpeed="11.180000"/>
	<vehicle id="RS_45" type="car9" route="route1_2_1" depart="8" departLane = "0" departSpeed="11.180000"/>
	<vehicle id="RX_46" type="car6" route="route1_3_2" depart="8" departLane = "0" departSpeed="11.180000"/>
	<vehicle id="SX_47" type="car9" route="route1_4_2" depart="8" departLane = "1" departSpeed="11.180000"/>
	<vehicle id="SR_48" type="car7" route="route0_1_3" depart="9" departLane = "1" departSpeed="11.180000"/>
	<vehicle id="RX_49" type="car5" route="route0_2_1" depart="9" departLane = "0" departSpeed="11.180000"/>
	<vehicle id="RR_50" type="car7" route="route0_4_3" depart="9" departLane = "0" departSpeed="11.180000"/>
	<vehicle id="LX_51" type="car5" route="route1_3_4" depart="9" departLane = "2" departSpeed="11.180000"/>
	<vehicle id="SX_52" type="car9" route="route1_4_2" depart="9" departLane = "1" departSpeed="11.180000"/>
	<vehicle id="LX_53" type="car8" route="route0_1_2" depart="10" departLane = "2" departSpeed="11.180000"/>
	<vehicle id="SX_54" type="car9" route="route0_2_4" depart="10" departLane = "1" departSpeed="11.180000"/>
	<vehicle id="RL_55" type="car7" route="route0_4_3" depart="10" departLane = "0" departSpeed="11.180000"/>
	<vehicle id="LX_56" type="car8" route="route1_2_3" depart="10" departLane = "2" departSpeed="11.180000"/>
	<vehicle id="SL_57" type="car5" route="route1_3_1" depart="10" departLane = "1" departSpeed="11.180000"/>
	<vehicle id="RX_58" type="car7" route="route1_4_3" depart="10" departLane = "0" departSpeed="11.180000"/>
	<vehicle id="SS_59" type="car6" route="route0_1_3" depart="11" departLane = "1" departSpeed="11.180000"/>
	<vehicle id="SX_60" type="car6" route="route0_4_2" depart="11" departLane = "1" departSpeed="11.180000"/>
	<vehicle id="SX_61" type="car8" route="route1_2_4" depart="11" departLane = "1" departSpeed="11.180000"/>
	<vehicle id="RX_62" type="car8" route="route1_3_2" depart="11" departLane = "0" departSpeed="11.180000"/>
	<vehicle id="RX_63" type="car5" route="route1_4_3" depart="11" departLane = "0" departSpeed="11.180000"/>
	<vehicle id="LX_64" type="car7" route="route0_1_2" depart="12" departLane = "2" departSpeed="11.180000"/>
	<vehicle id="RX_65" type="car9" route="route0_2_1" depart="12" departLane = "0" departSpeed="11.180000"/>
	<vehicle id="SX_66" type="car9" route="route0_4_2" depart="12" departLane = "1" departSpeed="11.180000"/>
	<vehicle id="LX_67" type="car8" route="route1_2_3" depart="12" departLane = "2" departSpeed="11.180000"/>
	<vehicle id="SS_68" type="car7" route="route1_3_1" depart="12" departLane = "1" departSpeed="11.180000"/>
	<vehicle id="RX_69" type="car7" route="route1_4_3" depart="12" departLane = "0" departSpeed="11.180000"/>
	<vehicle id="SL_70" type="car6" route="route0_1_3" depart="13" departLane = "1" departSpeed="11.180000"/>
	<vehicle id="RX_71" type="car9" route="route0_2_1" depart="13" departLane = "0" departSpeed="11.180000"/>
	<vehicle id="LX_72" type="car8" route="route1_2_3" depart="13" departLane = "2" departSpeed="11.180000"/>
	<vehicle id="SR_73" type="car6" route="route1_3_1" depart="13" departLane = "1" departSpeed="11.180000"/>
	<vehicle id="SX_74" type="car7" route="route1_4_2" depart="13" departLane = "1" departSpeed="11.180000"/>
	<vehicle id="SR_75" type="car9" route="route0_1_3" depart="14" departLane = "1" departSpeed="11.180000"/>
	<vehicle id="LS_76" type="car7" route="route0_2_3" depart="14" departLane = "2" departSpeed="11.180000"/>
	<vehicle id="SX_77" type="car7" route="route0_4_2" depart="14" departLane = "1" departSpeed="11.180000"/>
	<vehicle id="RR_78" type="car5" route="route1_2_1" depart="14" departLane = "0" departSpeed="11.180000"/>
	<vehicle id="LX_79" type="car7" route="route1_3_4" depart="14" departLane = "2" departSpeed="11.180000"/>
	<vehicle id="LS_80" type="car7" route="route1_4_1" depart="14" departLane = "2" departSpeed="11.180000"/>
	<vehicle id="RX_81" type="car7" route="route0_1_4" depart="15" departLane = "0" departSpeed="11.180000"/>
	<vehicle id="LS_82" type="car7" route="route0_2_3" depart="15" departLane = "2" departSpeed="11.180000"/>
	<vehicle id="RR_83" type="car6" route="route1_2_1" depart="15" departLane = "0" departSpeed="11.180000"/>
	<vehicle id="SR_84" type="car5" route="route1_3_1" depart="15" departLane = "1" departSpeed="11.180000"/>
	<vehicle id="LL_85" type="car7" route="route1_4_1" depart="15" departLane = "2" departSpeed="11.180000"/>
	<vehicle id="SS_86" type="car7" route="route0_1_3" depart="16" departLane = "1" departSpeed="11.180000"/>
	<vehicle id="RX_87" type="car9" route="route0_2_1" depart="16" departLane = "0" departSpeed="11.180000"/>
	<vehicle id="RR_88" type="car7" route="route0_4_3" depart="16" departLane = "0" departSpeed="11.180000"/>
	<vehicle id="RR_89" type="car7" route="route1_2_1" depart="16" departLane = "0" departSpeed="11.180000"/>
	<vehicle id="RX_90" type="car8" route="route1_3_2" depart="16" departLane = "0" departSpeed="11.180000"/>
	<vehicle id="RX_91" type="car6" route="route1_4_3" depart="16" departLane = "0" departSpeed="11.180000"/>
	<vehicle id="RX_92" type="car8" route="route0_1_4" depart="17" departLane = "0" departSpeed="11.180000"/>
	<vehicle id="SX_93" type="car9" route="route1_2_4" depart="17" departLane = "1" departSpeed="11.180000"/>
	<vehicle id="LL_94" type="car7" route="route1_4_1" depart="17" departLane = "2" departSpeed="11.180000"/>
	<vehicle id="LS_95" type="car5" route="route0_2_3" depart="18" departLane = "2" departSpeed="11.180000"/>
	<vehicle id="RL_96" type="car8" route="route0_4_3" depart="18" departLane = "0" departSpeed="11.180000"/>
	<vehicle id="SX_97" type="car9" route="route1_2_4" depart="18" departLane = "1" departSpeed="11.180000"/>
	<vehicle id="RX_98" type="car8" route="route1_3_2" depart="18" departLane = "0" departSpeed="11.180000"/>
	<vehicle id="LL_99" type="car9" route="route1_4_1" depart="18" departLane = "2" departSpeed="11.180000"/>
	<vehicle id="LX_100" type="car7" route="route0_1_2" depart="19" departLane = "2" departSpeed="11.180000"/>
	<vehicle id="LR_101" type="car5" route="route0_2_3" depart="19" departLane = "2" departSpeed="11.180000"/>
	<vehicle id="LX_102" type="car9" route="route0_4_1" depart="19" departLane = "2" departSpeed="11.180000"/>
	<vehicle id="LX_103" type="car6" route="route1_2_3" depart="19" departLane = "2" departSpeed="11.180000"/>
	<vehicle id="RX_104" type="car6" route="route1_3_2" depart="19" departLane = "0" departSpeed="11.180000"/>
	<vehicle id="RX_105" type="car5" route="route1_4_3" depart="19" departLane = "0" departSpeed="11.180000"/>
	<vehicle id="SX_106" type="car6" route="route0_4_2" depart="20" departLane = "1" departSpeed="11.180000"/>
	<vehicle id="RL_107" type="car6" route="route1_2_1" depart="20" departLane = "0" departSpeed="11.180000"/>
	<vehicle id="RX_108" type="car9" route="route1_3_2" depart="20" departLane = "0" departSpeed="11.180000"/>
	<vehicle id="SX_109" type="car8" route="route1_4_2" depart="20" departLane = "1" departSpeed="11.180000"/>
	<vehicle id="LX_110" type="car9" route="route0_1_2" depart="21" departLane = "2" departSpeed="11.180000"/>
	<vehicle id="RX_111" type="car6" route="route0_2_1" depart="21" departLane = "0" departSpeed="11.180000"/>
	<vehicle id="SX_112" type="car7" route="route0_4_2" depart="21" departLane = "1" departSpeed="11.180000"/>
	<vehicle id="RL_113" type="car8" route="route1_2_1" depart="21" departLane = "0" departSpeed="11.180000"/>
	<vehicle id="SX_114" type="car5" route="route1_4_2" depart="21" departLane = "1" departSpeed="11.180000"/>
	<vehicle id="SS_115" type="car9" route="route0_1_3" depart="22" departLane = "1" departSpeed="11.180000"/>
	<vehicle id="LL_116" type="car5" route="route0_2_3" depart="22" departLane = "2" departSpeed="11.180000"/>
	<vehicle id="SX_117" type="car7" route="route0_4_2" depart="22" departLane = "1" departSpeed="11.180000"/>
	<vehicle id="SX_118" type="car9" route="route1_2_4" depart="22" departLane = "1" departSpeed="11.180000"/>
	<vehicle id="RX_119" type="car9" route="route1_3_2" depart="22" departLane = "0" departSpeed="11.180000"/>
	<vehicle id="SX_120" type="car7" route="route1_4_2" depart="22" departLane = "1" departSpeed="11.180000"/>
	<vehicle id="SS_121" type="car8" route="route0_1_3" depart="23" departLane = "1" departSpeed="11.180000"/>
	<vehicle id="SX_122" type="car9" route="route0_2_4" depart="23" departLane = "1" departSpeed="11.180000"/>
	<vehicle id="RR_123" type="car7" route="route0_4_3" depart="23" departLane = "0" departSpeed="11.180000"/>
	<vehicle id="SX_124" type="car6" route="route1_2_4" depart="23" departLane = "1" departSpeed="11.180000"/>
	<vehicle id="LX_125" type="car9" route="route1_3_4" depart="23" departLane = "2" departSpeed="11.180000"/>
	<vehicle id="SX_126" type="car6" route="route1_4_2" depart="23" departLane = "1" departSpeed="11.180000"/>
	<vehicle id="RX_127" type="car7" route="route0_2_1" depart="24" departLane = "0" departSpeed="11.180000"/>
	<vehicle id="RR_128" type="car5" route="route0_4_3" depart="24" departLane = "0" departSpeed="11.180000"/>
	<vehicle id="LX_129" type="car7" route="route1_2_3" depart="24" departLane = "2" departSpeed="11.180000"/>
	<vehicle id="SS_130" type="car9" route="route1_3_1" depart="24" departLane = "1" departSpeed="11.180000"/>
	<vehicle id="LS_131" type="car7" route="route1_4_1" depart="24" departLane = "2" departSpeed="11.180000"/>
	<vehicle id="SS_132" type="car9" route="route0_1_3" depart="25" departLane = "1" departSpeed="11.180000"/>
	<vehicle id="LL_133" type="car8" route="route0_2_3" depart="25" departLane = "2" departSpeed="11.180000"/>
	<vehicle id="LX_134" type="car8" route="route1_2_3" depart="25" departLane = "2" departSpeed="11.180000"/>
	<vehicle id="LL_135" type="car6" route="route1_4_1" depart="25" departLane = "2" departSpeed="11.180000"/>
	<vehicle id="RX_136" type="car7" route="route0_1_4" depart="26" departLane = "0" departSpeed="11.180000"/>
	<vehicle id="SX_137" type="car7" route="route0_2_4" depart="26" departLane = "1" departSpeed="11.180000"/>
	<vehicle id="RS_138" type="car8" route="route0_4_3" depart="26" departLane = "0" departSpeed="11.180000"/>
	<vehicle id="SX_139" type="car7" route="route1_2_4" depart="26" departLane = "1" departSpeed="11.180000"/>
	<vehicle id="SR_140" type="car7" route="route1_3_1" depart="26" departLane = "1" departSpeed="11.180000"/>
	<vehicle id="SX_141" type="car5" route="route1_4_2" depart="26" departLane = "1" departSpeed="11.180000"/>
	<vehicle id="SS_142" type="car9" route="route0_1_3" depart="27" departLane = "1" departSpeed="11.180000"/>
	<vehicle id="SX_143" type="car5" route="route0_4_2" depart="27" departLane = "1" departSpeed="11.180000"/>
	<vehicle id="RS_144" type="car8" route="route1_2_1" depart="27" departLane = "0" departSpeed="11.180000"/>
	<vehicle id="LX_145" type="car9" route="route1_3_4" depart="27" departLane = "2" departSpeed="11.180000"/>
	<vehicle id="LL_146" type="car6" route="route1_4_1" depart="27" departLane = "2" departSpeed="11.180000"/>
	<vehicle id="SX_147" type="car6" route="route0_2_4" depart="28" departLane = "1" departSpeed="11.180000"/>
	<vehicle id="LX_148" type="car6" route="route0_4_1" depart="28" departLane = "2" departSpeed="11.180000"/>
	<vehicle id="LX_149" type="car7" route="route1_2_3" depart="28" departLane = "2" departSpeed="11.180000"/>
	<vehicle id="LX_150" type="car9" route="route1_3_4" depart="28" departLane = "2" departSpeed="11.180000"/>
	<vehicle id="LX_151" type="car9" route="route0_1_2" depart="29" departLane = "2" departSpeed="11.180000"/>
	<vehicle id="SX_152" type="car5" route="route0_2_4" depart="29" departLane = "1" departSpeed="11.180000"/>
	<vehicle id="SX_153" type="car6" route="route0_4_2" depart="29" departLane = "1" departSpeed="11.180000"/>
	<vehicle id="RS_154" type="car9" route="route1_2_1" depart="29" departLane = "0" departSpeed="11.180000"/>
	<vehicle id="LX_155" type="car9" route="route1_3_4" depart="29" departLane = "2" departSpeed="11.180000"/>
	<vehicle id="RX_156" type="car9" route="route1_4_3" depart="29" departLane = "0" departSpeed="11.180000"/>
	<vehicle id="RX_157" type="car7" route="route0_1_4" depart="30" departLane = "0" departSpeed="11.180000"/>
	<vehicle id="SX_158" type="car9" route="route0_2_4" depart="30" departLane = "1" departSpeed="11.180000"/>
	<vehicle id="SX_159" type="car5" route="route0_4_2" depart="30" departLane = "1" departSpeed="11.180000"/>
	<vehicle id="SX_160" type="car8" route="route1_2_4" depart="30" departLane = "1" departSpeed="11.180000"/>
	<vehicle id="LX_161" type="car5" route="route1_3_4" depart="30" departLane = "2" departSpeed="11.180000"/>
	<vehicle id="SX_162" type="car9" route="route1_4_2" depart="30" departLane = "1" departSpeed="11.180000"/>
	<vehicle id="RX_163" type="car8" route="route0_1_4" depart="31" departLane = "0" departSpeed="11.180000"/>
	<vehicle id="RX_164" type="car8" route="route0_2_1" depart="31" departLane = "0" departSpeed="11.180000"/>
	<vehicle id="LX_165" type="car8" route="route0_4_1" depart="31" departLane = "2" departSpeed="11.180000"/>
	<vehicle id="LX_166" type="car8" route="route1_2_3" depart="31" departLane = "2" departSpeed="11.180000"/>
	<vehicle id="RX_167" type="car6" route="route1_3_2" depart="31" departLane = "0" departSpeed="11.180000"/>
	<vehicle id="RX_168" type="car8" route="route1_4_3" depart="31" departLane = "0" departSpeed="11.180000"/>
	<vehicle id="RX_169" type="car5" route="route0_1_4" depart="32" departLane = "0" departSpeed="11.180000"/>
	<vehicle id="RX_170" type="car5" route="route0_2_1" depart="32" departLane = "0" departSpeed="11.180000"/>
	<vehicle id="LX_171" type="car8" route="route0_4_1" depart="32" departLane = "2" departSpeed="11.180000"/>
	<vehicle id="RL_172" type="car8" route="route1_2_1" depart="32" departLane = "0" departSpeed="11.180000"/>
	<vehicle id="LS_173" type="car8" route="route1_4_1" depart="32" departLane = "2" departSpeed="11.180000"/>
	<vehicle id="LX_174" type="car8" route="route0_1_2" depart="33" departLane = "2" departSpeed="11.180000"/>
	<vehicle id="RL_175" type="car8" route="route0_4_3" depart="33" departLane = "0" departSpeed="11.180000"/>
	<vehicle id="RS_176" type="car5" route="route1_2_1" depart="33" departLane = "0" departSpeed="11.180000"/>
	<vehicle id="RX_177" type="car6" route="route1_3_2" depart="33" departLane = "0" departSpeed="11.180000"/>
	<vehicle id="SX_178" type="car5" route="route1_4_2" depart="33" departLane = "1" departSpeed="11.180000"/>
	<vehicle id="RX_179" type="car5" route="route0_1_4" depart="34" departLane = "0" departSpeed="11.180000"/>
	<vehicle id="SX_180" type="car8" route="route0_2_4" depart="34" departLane = "1" departSpeed="11.180000"/>
	<vehicle id="SS_181" type="car5" route="route1_3_1" depart="34" departLane = "1" departSpeed="11.180000"/>
	<vehicle id="RX_182" type="car5" route="route1_4_3" depart="34" departLane = "0" departSpeed="11.180000"/>
	<vehicle id="LX_183" type="car5" route="route0_1_2" depart="35" departLane = "2" departSpeed="11.180000"/>
	<vehicle id="RX_184" type="car6" route="route0_2_1" depart="35" departLane = "0" departSpeed="11.180000"/>
	<vehicle id="LX_185" type="car8" route="route1_2_3" depart="35" departLane = "2" departSpeed="11.180000"/>
	<vehicle id="LX_186" type="car9" route="route1_3_4" depart="35" departLane = "2" departSpeed="11.180000"/>
	<vehicle id="SX_187" type="car6" route="route1_4_2" depart="35" departLane = "1" departSpeed="11.180000"/>
	<vehicle id="LX_188" type="car6" route="route0_1_2" depart="36" departLane = "2" departSpeed="11.180000"/>
	<vehicle id="LR_189" type="car5" route="route0_2_3" depart="36" departLane = "2" departSpeed="11.180000"/>
	<vehicle id="SX_190" type="car5" route="route0_4_2" depart="36" departLane = "1" departSpeed="11.180000"/>
	<vehicle id="LX_191" type="car9" route="route1_2_3" depart="36" departLane = "2" departSpeed="11.180000"/>
	<vehicle id="RX_192" type="car8" route="route1_3_2" depart="36" departLane = "0" departSpeed="11.180000"/>
	<vehicle id="SX_193" type="car6" route="route1_4_2" depart="36" departLane = "1" departSpeed="11.180000"/>
	<vehicle id="SR_194" type="car5" route="route0_1_3" depart="37" departLane = "1" departSpeed="11.180000"/>
	<vehicle id="RX_195" type="car9" route="route0_2_1" depart="37" departLane = "0" departSpeed="11.180000"/>
	<vehicle id="LX_196" type="car7" route="route0_4_1" depart="37" departLane = "2" departSpeed="11.180000"/>
	<vehicle id="LX_197" type="car5" route="route1_3_4" depart="37" departLane = "2" departSpeed="11.180000"/>
	<vehicle id="SX_198" type="car7" route="route1_4_2" depart="37" departLane = "1" departSpeed="11.180000"/>
	<vehicle id="RX_199" type="car9" route="route0_1_4" depart="38" departLane = "0" departSpeed="11.180000"/>
	<vehicle id="RX_200" type="car9" route="route0_2_1" depart="38" departLane = "0" departSpeed="11.180000"/>
	<vehicle id="LX_201" type="car6" route="route0_4_1" depart="38" departLane = "2" departSpeed="11.180000"/>
	<vehicle id="SX_202" type="car9" route="route1_2_4" depart="38" departLane = "1" departSpeed="11.180000"/>
	<vehicle id="RX_203" type="car7" route="route1_3_2" depart="38" departLane = "0" departSpeed="11.180000"/>
	<vehicle id="LL_204" type="car6" route="route1_4_1" depart="38" departLane = "2" departSpeed="11.180000"/>
	<vehicle id="SS_205" type="car7" route="route0_1_3" depart="39" departLane = "1" departSpeed="11.180000"/>
	<vehicle id="RX_206" type="car8" route="route0_2_1" depart="39" departLane = "0" departSpeed="11.180000"/>
	<vehicle id="SX_207" type="car5" route="route0_4_2" depart="39" departLane = "1" departSpeed="11.180000"/>
	<vehicle id="RS_208" type="car5" route="route1_2_1" depart="39" departLane = "0" departSpeed="11.180000"/>
	<vehicle id="SL_209" type="car5" route="route1_3_1" depart="39" departLane = "1" departSpeed="11.180000"/>
	<vehicle id="SX_210" type="car5" route="route1_4_2" depart="39" departLane = "1" departSpeed="11.180000"/>
	<vehicle id="RX_211" type="car8" route="route0_1_4" depart="40" departLane = "0" departSpeed="11.180000"/>
	<vehicle id="LL_212" type="car8" route="route0_2_3" depart="40" departLane = "2" departSpeed="11.180000"/>
	<vehicle id="LX_213" type="car7" route="route0_4_1" depart="40" departLane = "2" departSpeed="11.180000"/>
	<vehicle id="RS_214" type="car9" route="route1_2_1" depart="40" departLane = "0" departSpeed="11.180000"/>
	<vehicle id="LX_215" type="car8" route="route1_3_4" depart="40" departLane = "2" departSpeed="11.180000"/>
	<vehicle id="LL_216" type="car6" route="route1_4_1" depart="40" departLane = "2" departSpeed="11.180000"/>
	<vehicle id="SX_217" type="car6" route="route0_2_4" depart="41" departLane = "1" departSpeed="11.180000"/>
	<vehicle id="RS_218" type="car5" route="route0_4_3" depart="41" departLane = "0" departSpeed="11.180000"/>
	<vehicle id="SL_219" type="car6" route="route1_3_1" depart="41" departLane = "1" departSpeed="11.180000"/>
	<vehicle id="LL_220" type="car9" route="route1_4_1" depart="41" departLane = "2" departSpeed="11.180000"/>
	<vehicle id="LX_221" type="car6" route="route0_1_2" depart="42" departLane = "2" departSpeed="11.180000"/>
	<vehicle id="RX_222" type="car9" route="route0_2_1" depart="42" departLane = "0" departSpeed="11.180000"/>
	<vehicle id="RR_223" type="car8" route="route0_4_3" depart="42" departLane = "0" departSpeed="11.180000"/>
	<vehicle id="LX_224" type="car7" route="route1_2_3" depart="42" departLane = "2" departSpeed="11.180000"/>
	<vehicle id="SR_225" type="car8" route="route1_3_1" depart="42" departLane = "1" departSpeed="11.180000"/>
	<vehicle id="SR_226" type="car5" route="route0_1_3" depart="43" departLane = "1" departSpeed="11.180000"/>
	<vehicle id="RX_227" type="car9" route="route0_2_1" depart="43" departLane = "0" departSpeed="11.180000"/>
	<vehicle id="LX_228" type="car6" route="route0_4_1" depart="43" departLane = "2" departSpeed="11.180000"/>
	<vehicle id="SX_229" type="car5" route="route1_2_4" depart="43" departLane = "1" departSpeed="11.180000"/>
	<vehicle id="SS_230" type="car6" route="route1_3_1" depart="43" departLane = "1" departSpeed="11.180000"/>
	<vehicle id="SX_231" type="car5" route="route1_4_2" depart="43" departLane = "1" departSpeed="11.180000"/>
	<vehicle id="SL_232" type="car8" route="route0_1_3" depart="44" departLane = "1" departSpeed="11.180000"/>
	<vehicle id="LR_233" type="car7" route="route0_2_3" depart="44" departLane = "2" departSpeed="11.180000"/>
	<vehicle id="RL_234" type="car8" route="route0_4_3" depart="44" departLane = "0" departSpeed="11.180000"/>
	<vehicle id="RS_235" type="car9" route="route1_2_1" depart="44" departLane = "0" departSpeed="11.180000"/>
	<vehicle id="LL_236" type="car8" route="route1_4_1" depart="44" departLane = "2" departSpeed="11.180000"/>
	<vehicle id="SL_237" type="car6" route="route0_1_3" depart="45" departLane = "1" departSpeed="11.180000"/>
	<vehicle id="LL_238" type="car5" route="route0_2_3" depart="45" departLane = "2" departSpeed="11.180000"/>
	<vehicle id="RS_239" type="car8" route="route0_4_3" depart="45" departLane = "0" departSpeed="11.180000"/>
	<vehicle id="LX_240" type="car8" route="route1_2_3" depart="45" departLane = "2" departSpeed="11.180000"/>
	<vehicle id="RX_241" type="car7" route="route1_3_2" depart="45" departLane = "0" departSpeed="11.180000"/>
	<vehicle id="RX_242" type="car6" route="route1_4_3" depart="45" departLane = "0" departSpeed="11.180000"/>
	<vehicle id="RX_243" type="car6" route="route0_1_4" depart="46" departLane = "0" departSpeed="11.180000"/>
	<vehicle id="LR_244" type="car5" route="route0_2_3" depart="46" departLane = "2" departSpeed="11.180000"/>
	<vehicle id="SX_245" type="car7" route="route0_4_2" depart="46" departLane = "1" departSpeed="11.180000"/>
	<vehicle id="RR_246" type="car5" route="route1_2_1" depart="46" departLane = "0" departSpeed="11.180000"/>
	<vehicle id="SR_247" type="car8" route="route1_3_1" depart="46" departLane = "1" departSpeed="11.180000"/>
	<vehicle id="RX_248" type="car6" route="route1_4_3" depart="46" departLane = "0" departSpeed="11.180000"/>
	<vehicle id="SS_249" type="car7" route="route0_1_3" depart="47" departLane = "1" departSpeed="11.180000"/>
	<vehicle id="LS_250" type="car6" route="route0_2_3" depart="47" departLane = "2" departSpeed="11.180000"/>
	<vehicle id="RL_251" type="car6" route="route0_4_3" depart="47" departLane = "0" departSpeed="11.180000"/>
	<vehicle id="RR_252" type="car5" route="route1_2_1" depart="47" departLane = "0" departSpeed="11.180000"/>
	<vehicle id="LX_253" type="car5" route="route1_3_4" depart="47" departLane = "2" departSpeed="11.180000"/>
	<vehicle id="RX_254" type="car7" route="route1_4_3" depart="47" departLane = "0" departSpeed="11.180000"/>
	<vehicle id="SR_255" type="car6" route="route0_1_3" depart="48" departLane = "1" departSpeed="11.180000"/>
	<vehicle id="SX_256" type="car7" route="route0_2_4" depart="48" departLane = "1" departSpeed="11.180000"/>
	<vehicle id="RR_257" type="car8" route="route0_4_3" depart="48" departLane = "0" departSpeed="11.180000"/>
	<vehicle id="SX_258" type="car6" route="route1_2_4" depart="48" departLane = "1" departSpeed="11.180000"/>
	<vehicle id="LX_259" type="car6" route="route1_3_4" depart="48" departLane = "2" departSpeed="11.180000"/>
	<vehicle id="SS_260" type="car8" route="route0_1_3" depart="49" departLane = "1" departSpeed="11.180000"/>