<routes>

	<vType id="car5" accel="200.0" decel="200.0" sigma="0.0" length="5" minGap="3.000000" maxSpeed="11.180000" tau="0.100000" carFollowModel="CACC" color="255,255,255"/>
	<vType id="car6" accel="200.0" decel="200.0" sigma="0.0" length="6" minGap="3.000000" maxSpeed="11.180000" tau="0.100000" carFollowModel="CACC" color="255,255,255"/>
	<vType id="car7" accel="200.0" decel="200.0" sigma="0.0" length="7" minGap="3.000000" maxSpeed="11.180000" tau="0.100000" carFollowModel="CACC" color="255,255,255"/>
	<vType id="car8" accel="200.0" decel="200.0" sigma="0.0" length="8" minGap="3.000000" maxSpeed="11.180000" tau="0.100000" carFollowModel="CACC" color="255,255,255"/>
	<vType id="car9" accel="200.0" decel="200.0" sigma="0.0" length="9" minGap="3.000000" maxSpeed="11.180000" tau="0.100000" carFollowModel="CACC" color="255,255,255"/>

	<route id="route001_001_1_2" edges=" 001_001_1"/>
	<route id="route001_001_1_3" edges=" 001_001_1"/>
	<route id="route001_001_1_4" edges=" 001_001_1"/>
	<route id="route001_001_2_1" edges=" 001_001_2"/>
	<route id="route001_001_2_3" edges=" 001_001_2"/>
	<route id="route001_001_2_4" edges=" 001_001_2"/>
	<route id="route001_001_3_1" edges=" 001_001_3"/>
	<route id="route001_001_3_2" edges=" 001_001_3"/>
	<route id="route001_001_3_4" edges=" 001_001_3"/>
	<route id="route001_001_4_1" edges=" 001_001_4"/>
	<route id="route001_001_4_2" edges=" 001_001_4"/>
	<route id="route001_001_4_3" edges=" 001_001_4"/>
	<route id="route001_002_1_2" edges=" 001_002_1"/>
	<route id="route001_002_1_3" edges=" 001_002_1"/>
	<route id="route001_002_1_4" edges=" 001_002_1"/>
	<route id="route001_002_2_1" edges=" 001_002_2"/>
	<route id="route001_002_2_3" edges=" 001_002_2"/>
	<route id="route001_002_2_4" edges=" 001_002_2"/>
	<route id="route001_002_3_1" edges=" 001_002_3"/>
	<route id="route001_002_3_2" edges=" 001_002_3"/>
	<route id="route001_002_3_4" edges=" 001_002_3"/>
	<route id="route001_002_4_1" edges=" 001_002_4"/>
	<route id="route001_002_4_2" edges=" 001_002_4"/>
	<route id="route001_002_4_3" edges=" 001_002_4"/>
	<route id="route002_001_1_2" edges=" 002_001_1"/>
	<route id="route002_001_1_3" edges=" 002_001_1"/>
	<route id="route002_001_1_4" edges=" 002_001_1"/>
	<route id="route002_001_2_1" edges=" 002_001_2"/>
	<route id="route002_001_2_3" edges=" 002_001_2"/>
	<route id="route002_001_2_4" edges=" 002_001_2"/>
	<route id="route002_001_3_1" edges=" 002_001_3"/>
	<route id="route002_001_3_2" edges=" 002_001_3"/>
	<route id="route002_001_3_4" edges=" 002_001_3"/>
	<route id="route002_001_4_1" edges=" 002_001_4"/>
	<route id="route002_001_4_2" edges=" 002_001_4"/>
	<route id="route002_001_4_3" edges=" 002_001_4"/>
	<route id="route002_002_1_2" edges=" 002_002_1"/>
	<route id="route002_002_1_3" edges=" 002_002_1"/>
	<route id="route002_002_1_4" edges=" 002_002_1"/>
	<route id="route002_002_2_1" edges=" 002_002_2"/>
	<route id="route002_002_2_3" edges=" 002_002_2"/>
	<route id="route002_002_2_4" edges=" 002_002_2"/>
	<route id="route002_002_3_1" edges=" 002_002_3"/>
	<route id="route002_002_3_2" edges=" 002_002_3"/>
	<route id="route002_002_3_4" edges=" 002_002_3"/>
	<route id="route002_002_4_1" edges=" 002_002_4"/>
	<route id="route002_002_4_2" edges=" 002_002_4"/>
	<route id="route002_002_4_3" edges=" 002_002_4"/>

	<vehicle id="SRSX_0" type="car8" route="route001_001_4_2" depart="0" departLane = "1" departSpeed="11.180000"/>
	<vehicle id="RRX_1" type="car9" route="route002_001_3_2" depart="0" departLane = "0" departSpeed="11.180000"/>
	<vehicle id="SSX_2" type="car7" route="route002_001_4_2" depart="0" departLane = "1" departSpeed="11.180000"/>
	<vehicle id="LLX_3" type="car6" route="route001_002_2_3" depart="0" departLane = "2" departSpeed="11.180000"/>
	<vehicle id="LX_4" type="car7" route="route002_002_2_3" depart="0" departLane = "2" departSpeed="11.180000"/>
	<vehicle id="SRX_5" type="car5" route="route002_002_3_1" depart="0" departLane = "1" departSpeed="11.180000"/>
	<vehicle id="SSX_6" type="car7" route="route001_001_1_3" depart="1" departLane = "1" departSpeed="11.180000"/>
	<vehicle id="RSX_7" type="car9" route="route002_001_3_2" depart="1" departLane = "0" departSpeed="11.180000"/>
	<vehicle id="SSX_8" type="car5" route="route001_002_1_3" depart="1" departLane = "1" departSpeed="11.180000"/>
	<vehicle id="RLRX_9" type="car8" route="route002_002_2_1" depart="1" departLane = "0" departSpeed="11.180000"/>
	<vehicle id="RX_10" type="car7" route="route002_002_3_2" depart="1" departLane = "0" departSpeed="11.180000"/>
	<vehicle id="RX_11" type="car9" route="route001_001_1_4" depart="2" departLane = "0" departSpeed="11.180000"/>
	<vehicle id="SRLX_12" type="car6" route="route001_001_4_2" depart="2" departLane = "1" departSpeed="11.180000"/>
	<vehicle id="RX_13" type="car9" route="route002_001_4_3" depart="2" departLane = "0" departSpeed="11.180000"/>
	<vehicle id="SSX_14" type="car9" route="route001_002_1_3" depart="2" departLane = "1" departSpeed="11.180000"/>
	<vehicle id="RLSX_15" type="car8" route="route002_002_2_1" depart="2" departLane = "0" departSpeed="11.180000"/>
	<vehicle id="LRLX_16" type="car5" route="route002_002_3_4" depart="2" departLane = "2" departSpeed="11.180000"/>
	<vehicle id="LLX_17" type="car7" route="route001_001_1_2" depart="3" departLane = "2" departSpeed="11.180000"/>
	<vehicle id="LX_18" type="car7" route="route001_001_4_1" depart="3" departLane = "2" departSpeed="11.180000"/>
	<vehicle id="LX_19" type="car5" route="route002_001_3_4" depart="3" departLane = "2" departSpeed="11.180000"/>
	<vehicle id="LSX_20" type="car9" route="route002_001_4_1" depart="3" departLane = "2" departSpeed="11.180000"/>
	<vehicle id="RSX_21" type="car6" route="route001_002_1_4" depart="3" departLane = "0" departSpeed="11.180000"/>
	<vehicle id="SRLX_22" type="car5" route="route002_002_2_4" depart="3" departLane = "1" departSpeed="11.180000"/>
	<vehicle id="LX_23" type="car7" route="route002_001_3_4" depart="4" departLane = "2" departSpeed="11.180000"/>
	<vehicle id="RX_24" type="car5" route="route002_001_4_3" depart="4" departLane = "0" departSpeed="11.180000"/>
	<vehicle id="RLRX_25" type="car9" route="route001_002_1_4" depart="4" departLane = "0" departSpeed="11.180000"/>
	<vehicle id="RX_26" type="car9" route="route001_002_2_1" depart="4" departLane = "0" departSpeed="11.180000"/>
	<vehicle id="SLX_27" type="car7" route="route002_002_2_4" depart="4" departLane = "1" departSpeed="11.180000"/>
	<vehicle id="LSX_28" type="car9" route="route002_002_3_4" depart="4" departLane = "2" departSpeed="11.180000"/>
	<vehicle id="RX_29" type="car7" route="route001_001_1_4" depart="5" departLane = "0" departSpeed="11.180000"/>
	<vehicle id="SSX_30" type="car7" route="route001_001_4_2" depart="5" departLane = "1" departSpeed="11.180000"/>
	<vehicle id="RSX_31" type="car6" route="route002_001_3_2" depart="5" departLane = "0" departSpeed="11.180000"/>
	<vehicle id="SSX_32" type="car7" route="route002_001_4_2" depart="5" departLane = "1" departSpeed="11.180000"/>
	<vehicle id="SSX_33" type="car5" route="route001_002_1_3" depart="5" departLane = "1" departSpeed="11.180000"/>
	<vehicle id="RX_34" type="car6" route="route001_002_2_1" depart="5" departLane = "0" departSpeed="11.180000"/>
	<vehicle id="LRSX_35" type="car8" route="route002_001_4_1" depart="6" departLane = "2" departSpeed="11.180000"/>
	<vehicle id="SRX_36" type="car9" route="route001_002_2_4" depart="6" departLane = "1" departSpeed="11.180000"/>
	<vehicle id="LX_37" type="car8" route="route001_001_4_1" depart="7" departLane = "2" departSpeed="11.180000"/>
	<vehicle id="RLRX_38" type="car8" route="route002_001_3_2" depart="7" departLane = "0" departSpeed="11.180000"/>
	<vehicle id="RX_39" type="car7" route="route002_001_4_3" depart="7" departLane = "0" departSpeed="11.180000"/>
	<vehicle id="SLX_40" type="car9" route="route001_002_1_3" depart="7" departLane = "1" departSpeed="11.180000"/>
	<vehicle id="SLSX_41" type="car9" route="route001_002_2_4" depart="7" departLane = "1" departSpeed="11.180000"/>
	<vehicle id="LX_42" type="car6" route="route002_002_2_3" depart="7" departLane = "2" departSpeed="11.180000"/>
	<vehicle id="LLX_43" type="car7" route="route002_002_3_4" depart="7" departLane = "2" departSpeed="11.180000"/>
	<vehicle id="LLX_44" type="car6" route="route001_001_1_2" depart="8" departLane = "2" departSpeed="11.180000"/>
	<vehicle id="SLX_45" type="car6" route="route001_001_4_2" depart="8" departLane = "1" departSpeed="11.180000"/>
	<vehicle id="RSX_46" type="car5" route="route002_001_3_2" depart="8" departLane = "0" departSpeed="11.180000"/>
	<vehicle id="LSX_47" type="car6" route="route002_001_4_1" depart="8" departLane = "2" departSpeed="11.180000"/>
	<vehicle id="LSX_48" type="car9" route="route001_002_2_3" depart="8" departLane = "2" departSpeed="11.180000"/>
	<vehicle id="RLSX_49" type="car9" route="route002_002_2_1" depart="8" departLane = "0" departSpeed="11.180000"/>
	<vehicle id="RX_50" type="car5" route="route002_002_3_2" depart="8" departLane = "0" departSpeed="11.180000"/>
	<vehicle id="SRX_51" type="car6" route="route001_001_1_3" depart="9" departLane = "1" departSpeed="11.180000"/>
	<vehicle id="LX_52" type="car9" route="route001_001_4_1" depart="9" departLane = "2" departSpeed="11.180000"/>
	<vehicle id="SSX_53" type="car5" route="route002_001_3_1" depart="9" departLane = "1" departSpeed="11.180000"/>
	<vehicle id="LSX_54" type="car5" route="route002_001_4_1" depart="9" departLane = "2" departSpeed="11.180000"/>
	<vehicle id="LX_55" type="car5" route="route001_002_1_2" depart="9" departLane = "2" departSpeed="11.180000"/>
	<vehicle id="SRX_56" type="car6" route="route001_002_2_4" depart="9" departLane = "1" departSpeed="11.180000"/>
	<vehicle id="LX_57" type="car8" route="route002_002_2_3" depart="9" departLane = "2" departSpeed="11.180000"/>
	<vehicle id="SRX_58" type="car5" route="route002_002_3_1" depart="9" departLane = "1" departSpeed="11.180000"/>
	<vehicle id="SRLX_59" type="car8" route="route001_001_4_2" depart="10" departLane = "1" departSpeed="11.180000"/>
	<vehicle id="LX_60" type="car7" route="route002_001_3_4" depart="10" departLane = "2" departSpeed="11.180000"/>
	<vehicle id="RX_61" type="car5" route="route002_001_4_3" depart="10" departLane = "0" departSpeed="11.180000"/>
	<vehicle id="SRSX_62" type="car7" route="route001_002_1_3" depart="10" departLane = "1" departSpeed="11.180000"/>
	<vehicle id="LRSX_63" type="car5" route="route001_002_2_3" depart="10" departLane = "2" departSpeed="11.180000"/>
	<vehicle id="SRSX_64" type="car5" route="route002_002_2_4" depart="10" departLane = "1" departSpeed="11.180000"/>
	<vehicle id="LRSX_65" type="car8" route="route002_002_3_4" depart="10" departLane = "2" departSpeed="11.180000"/>
	<vehicle id="RX_66" type="car7" route="route001_001_1_4" depart="11" departLane = "0" departSpeed="11.180000"/>
	<vehicle id="SRSX_67" type="car9" route="route002_001_3_1" depart="11" departLane = "1" departSpeed="11.180000"/>
	<vehicle id="SSX_68" type="car6" route="route002_001_4_2" depart="11" departLane = "1" departSpeed="11.180000"/>
	<vehicle id="SSX_69" type="car6" route="route001_002_2_4" depart="11" departLane = "1" departSpeed="11.180000"/>
	<vehicle id="RX_70" type="car7" route="route002_002_3_2" depart="11" departLane = "0" departSpeed="11.180000"/>
	<vehicle id="LSX_71" type="car8" route="route001_001_1_2" depart="12" departLane = "2" departSpeed="11.180000"/>
	<vehicle id="RRX_72" type="car5" route="route001_001_4_3" depart="12" departLane = "0" departSpeed="11.180000"/>
	<vehicle id="LX_73" type="car8" route="route002_001_3_4" depart="12" departLane = "2" departSpeed="11.180000"/>
	<vehicle id="LX_74" type="car8" route="route002_002_2_3" depart="12" departLane = "2" departSpeed="11.180000"/>
	<vehicle id="SSX_75" type="car9" route="route001_001_1_3" depart="13" departLane = "1" departSpeed="11.180000"/>
	<vehicle id="LX_76" type="car8" route="route001_001_4_1" depart="13" departLane = "2" departSpeed="11.180000"/>
	<vehicle id="RLSX_77" type="car7" route="route002_001_3_2" depart="13" departLane = "0" departSpeed="11.180000"/>
	<vehicle id="RX_78" type="car9" route="route002_001_4_3" depart="13" departLane = "0" departSpeed="11.180000"/>
	<vehicle id="SSX_79" type="car6" route="route001_002_1_3" depart="13" departLane = "1" departSpeed="11.180000"/>
	<vehicle id="RX_80" type="car8" route="route001_002_2_1" depart="13" departLane = "0" departSpeed="11.180000"/>
	<vehicle id="RRX_81" type="car7" route="route002_002_2_1" depart="13" departLane = "0" departSpeed="11.180000"/>
	<vehicle id="LRSX_82" type="car9" route="route002_002_3_4" depart="13" departLane = "2" departSpeed="11.180000"/>
	<vehicle id="SRLX_83" type="car9" route="route001_001_4_2" depart="14" departLane = "1" departSpeed="11.180000"/>
	<vehicle id="RLRX_84" type="car7" route="route002_001_3_2" depart="14" departLane = "0" departSpeed="11.180000"/>
	<vehicle id="LRLX_85" type="car8" route="route002_001_4_1" depart="14" departLane = "2" departSpeed="11.180000"/>
	<vehicle id="RX_86" type="car9" route="route001_002_2_1" depart="14" departLane = "0" departSpeed="11.180000"/>
	<vehicle id="SSX_87" type="car7" route="route002_002_2_4" depart="14" departLane = "1" departSpeed="11.180000"/>
	<vehicle id="LRLX_88" type="car6" route="route002_002_3_4" depart="14" departLane = "2" departSpeed="11.180000"/>
	<vehicle id="SLRX_89" type="car8" route="route001_001_1_3" depart="15" departLane = "1" departSpeed="11.180000"/>
	<vehicle id="RRX_90" type="car9" route="route001_001_4_3" depart="15" departLane = "0" departSpeed="11.180000"/>
	<vehicle id="LSX_91" type="car9" route="route002_001_4_1" depart="15" departLane = "2" departSpeed="11.180000"/>
	<vehicle id="RLSX_92" type="car5" route="route001_002_1_4" depart="15" departLane = "0" departSpeed="11.180000"/>
	<vehicle id="SSX_93" type="car5" route="route001_002_2_4" depart="15" departLane = "1" departSpeed="11.180000"/>
	<vehicle id="LX_94" type="car6" route="route002_002_2_3" depart="15" departLane = "2" departSpeed="11.180000"/>
	<vehicle id="LSX_95" type="car8" route="route002_002_3_4" depart="15" departLane = "2" departSpeed="11.180000"/>
	<vehicle id="RRX_96" type="car5" route="route001_001_4_3" depart="16" departLane = "0" departSpeed="11.180000"/>
	<vehicle id="SSX_97" type="car7" route="route002_001_4_2" depart="16" departLane = "1" departSpeed="11.180000"/>
	<vehicle id="RX_98" type="car8" route="route001_002_2_1" depart="16" departLane = "0" departSpeed="11.180000"/>
	<vehicle id="SLX_99" type="car5" route="route002_002_2_4" depart="16" departLane = "1" departSpeed="11.180000"/>
	<vehicle id="RX_100" type="car5" route="route001_001_1_4" depart="17" departLane = "0" departSpeed="11.180000"/>
	<vehicle id="RLSX_101" type="car8" route="route001_001_4_3" depart="17" departLane = "0" departSpeed="11.180000"/>
	<vehicle id="SSX_102" type="car6" route="route002_001_3_1" depart="17" departLane = "1" departSpeed="11.180000"/>
	<vehicle id="RX_103" type="car5" route="route002_001_4_3" depart="17" departLane = "0" departSpeed="11.180000"/>
	<vehicle id="LSX_104" type="car9" route="route001_002_2_3" depart="17" departLane = "2" departSpeed="11.180000"/>
	<vehicle id="LX_105" type="car5" route="route002_002_2_3" depart="17" departLane = "2" departSpeed="11.180000"/>
	<vehicle id="LRLX_106" type="car6" route="route002_002_3_4" depart="17" departLane = "2" departSpeed="11.180000"/>
	<vehicle id="SRSX_107" type="car6" route="route001_001_4_2" depart="18" departLane = "1" departSpeed="11.180000"/>
	<vehicle id="LX_108" type="car8" route="route002_001_3_4" depart="18" departLane = "2" departSpeed="11.180000"/>
	<vehicle id="LSX_109" type="car5" route="route002_001_4_1" depart="18" departLane = "2" departSpeed="11.180000"/>
	<vehicle id="LX_110" type="car8" route="route001_002_1_2" depart="18" departLane = "2" departSpeed="11.180000"/>
	<vehicle id="RX_111" type="car5" route="route001_002_2_1" depart="18" departLane = "0" departSpeed="11.180000"/>
	<vehicle id="SLSX_112" type="car9" route="route002_002_3_1" depart="18" departLane = "1" departSpeed="11.180000"/>
	<vehicle id="RRX_113" type="car5" route="route001_001_4_3" depart="19" departLane = "0" departSpeed="11.180000"/>
	<vehicle id="SRX_114" type="car5" route="route002_001_4_2" depart="19" departLane = "1" departSpeed="11.180000"/>
	<vehicle id="SRLX_115" type="car6" route="route001_002_1_3" depart="19" departLane = "1" departSpeed="11.180000"/>
	<vehicle id="LSX_116" type="car9" route="route001_002_2_3" depart="19" departLane = "2" departSpeed="11.180000"/>
	<vehicle id="LX_117" type="car7" route="route002_002_2_3" depart="19" departLane = "2" departSpeed="11.180000"/>
	<vehicle id="LX_118" type="car9" route="route001_001_4_1" depart="20" departLane = "2" departSpeed="11.180000"/>
	<vehicle id="RLSX_119" type="car8" route="route002_001_3_2" depart="20" departLane = "0" departSpeed="11.180000"/>
	<vehicle id="SLSX_120" type="car7" route="route002_001_4_2" depart="20" departLane = "1" departSpeed="11.180000"/>
	<vehicle id="SRX_121" type="car8" route="route001_002_2_4" depart="20" departLane = "1" departSpeed="11.180000"/>
	<vehicle id="LX_122" type="car5" route="route002_002_2_3" depart="20" departLane = "2" departSpeed="11.180000"/>
	<vehicle id="RX_123" type="car7" route="route002_002_3_2" depart="20" departLane = "0" departSpeed="11.180000"/>
	<vehicle id="LRLX_124" type="car7" route="route001_001_1_2" depart="21" departLane = "2" departSpeed="11.180000"/>
	<vehicle id="SRLX_125" type="car7" route="route001_001_4_2" depart="21" departLane = "1" departSpeed="11.180000"/>
	<vehicle id="RLSX_126" type="car5" route="route002_001_3_2" depart="21" departLane = "0" departSpeed="11.180000"/>
	<vehicle id="RX_127" type="car6" route="route002_001_4_3" depart="21" departLane = "0" departSpeed="11.180000"/>
	<vehicle id="SRSX_128" type="car9" route="route001_002_1_3" depart="21" departLane = "1" departSpeed="11.180000"/>
	<vehicle id="SSX_129" type="car8" route="route001_002_2_4" depart="21" departLane = "1" departSpeed="11.180000"/>
	<vehicle id="SLSX_130" type="car5" route="route002_002_3_1" depart="21" departLane = "1" departSpeed="11.180000"/>
	<vehicle id="RX_131" type="car6" route="route001_001_1_4" depart="22" departLane = "0" departSpeed="11.180000"/>
	<vehicle id="RRX_132" type="car9" route="route002_001_3_2" depart="22" departLane = "0" departSpeed="11.180000"/>
	<vehicle id="LLX_133" type="car7" route="route002_001_4_1" depart="22" departLane = "2" departSpeed="11.180000"/>
	<vehicle id="RSX_134" type="car7" route="route001_002_1_4" depart="22" departLane = "0" departSpeed="11.180000"/>
	<vehicle id="RX_135" type="car5" route="route001_002_2_1" depart="22" departLane = "0" departSpeed="11.180000"/>
	<vehicle id="LX_136" type="car8" route="route002_002_2_3" depart="22" departLane = "2" departSpeed="11.180000"/>
	<vehicle id="LLX_137" type="car7" route="route002_002_3_4" depart="22" departLane = "2" departSpeed="11.180000"/>
	<vehicle id="RX_138" type="car5" route="route001_001_1_4" depart="23" departLane = "0" departSpeed="11.180000"/>
	<vehicle id="LX_139" type="car8" route="route001_001_4_1" depart="23" departLane = "2" departSpeed="11.180000"/>
	<vehicle id="RLSX_140" type="car7" route="route002_001_3_2" depart="23" departLane = "0" departSpeed="11.180000"/>
	<vehicle id="LSX_141" type="car6" route="route002_001_4_1" depart="23" departLane = "2" departSpeed="11.180000"/>
	<vehicle id="SRX_142" type="car8" route="route001_002_2_4" depart="23" departLane = "1" departSpeed="11.180000"/>
	<vehicle id="LLX_143" type="car5" route="route001_001_1_2" depart="24" departLane = "2" departSpeed="11.180000"/>
	<vehicle id="LX_144" type="car6" route="route001_001_4_1" depart="24" departLane = "2" departSpeed="11.180000"/>
	<vehicle id="LX_145" type="car5" route="route002_001_3_4" depart="24" departLane = "2" departSpeed="11.180000"/>
	<vehicle id="RX_146" type="car9" route="route002_001_4_3" depart="24" departLane = "0" departSpeed="11.180000"/>
	<vehicle id="RRX_147" type="car8" route="route001_002_1_4" depart="24" departLane = "0" departSpeed="11.180000"/>
	<vehicle id="LX_148" type="car6" route="route002_002_2_3" depart="24" departLane = "2" departSpeed="11.180000"/>
	<vehicle id="SLRX_149" type="car7" route="route002_002_3_1" depart="24" departLane = "1" departSpeed="11.180000"/>
	<vehicle id="SRX_150" type="car7" route="route001_001_1_3" depart="25" departLane = "1" departSpeed="11.180000"/>
	<vehicle id="SLX_151" type="car6" route="route001_001_4_2" depart="25" departLane = "1" departSpeed="11.180000"/>
	<vehicle id="SRSX_152" type="car7" route="route002_001_3_1" depart="25" departLane = "1" departSpeed="11.180000"/>
	<vehicle id="RX_153" type="car5" route="route002_001_4_3" depart="25" departLane = "0" departSpeed="11.180000"/>
	<vehicle id="RX_154" type="car6" route="route001_002_2_1" depart="25" departLane = "0" departSpeed="11.180000"/>
	<vehicle id="SRLX_155" type="car8" route="route002_002_2_4" depart="25" departLane = "1" departSpeed="11.180000"/>
	<vehicle id="RX_156" type="car5" route="route002_002_3_2" depart="25" departLane = "0" departSpeed="11.180000"/>
	<vehicle id="LX_157" type="car9" route="route001_001_4_1" depart="26" departLane = "2" departSpeed="11.180000"/>
	<vehicle id="RRX_158" type="car6" route="route002_001_3_2" depart="26" departLane = "0" departSpeed="11.180000"/>
	<vehicle id="RX_159" type="car7" route="route002_001_4_3" depart="26" departLane = "0" departSpeed="11.180000"/>
	<vehicle id="RRX_160" type="car6" route="route001_002_1_4" depart="26" departLane = "0" departSpeed="11.180000"/>
	<vehicle id="RX_161" type="car9" route="route001_002_2_1" depart="26" departLane = "0" departSpeed="11.180000"/>
	<vehicle id="LLX_162" type="car8" route="route002_002_3_4" depart="26" departLane = "2" departSpeed="11.180000"/>
	<vehicle id="SSX_163" type="car8" route="route001_001_1_3" depart="27" departLane = "1" departSpeed="11.180000"/>
	<vehicle id="LX_164" type="car7" route="route002_001_3_4" depart="27" departLane = "2" departSpeed="11.180000"/>
	<vehicle id="SLRX_165" type="car6" route="route001_002_2_4" depart="27" departLane = "1" departSpeed="11.180000"/>
	<vehicle id="LX_166" type="car6" route="route002_002_2_3" depart="27" departLane = "2" departSpeed="11.180000"/>
	<vehicle id="RX_167" type="car7" route="route002_002_3_2" depart="27" departLane = "0" departSpeed="11.180000"/>
	<vehicle id="RRX_168" type="car6" route="route001_001_4_3" depart="28" departLane = "0" departSpeed="11.180000"/>
	<vehicle id="RX_169" type="car6" route="route002_001_4_3" depart="28" departLane = "0" departSpeed="11.180000"/>
	<vehicle id="RX_170" type="car8" route="route001_002_2_1" depart="28" departLane = "0" departSpeed="11.180000"/>
	<vehicle id="LX_171" type="car5" route="route002_002_2_3" depart="28" departLane = "2" departSpeed="11.180000"/>
	<vehicle id="LSX_172" type="car5" route="route002_002_3_4" depart="28" departLane = "2" departSpeed="11.180000"/>
	<vehicle id="LLX_173" type="car6" route="route001_001_1_2" depart="29" departLane = "2" departSpeed="11.180000"/>
	<vehicle id="LX_174" type="car5" route="route001_001_4_1" depart="29" departLane = "2" departSpeed="11.180000"/>
	<vehicle id="RLRX_175" type="car8" route="route002_001_3_2" depart="29" departLane = "0" departSpeed="11.180000"/>
	<vehicle id="LRSX_176" type="car6" route="route002_001_4_1" depart="29" departLane = "2" departSpeed="11.180000"/>
	<vehicle id="LX_177" type="car7" route="route002_002_2_3" depart="29" departLane = "2" departSpeed="11.180000"/>
	<vehicle id="RX_178" type="car9" route="route002_002_3_2" depart="29" departLane = "0" departSpeed="11.180000"/>
	<vehicle id="LSX_179" type="car9" route="route001_001_1_2" depart="30" departLane = "2" departSpeed="11.180000"/>
	<vehicle id="SRLX_180" type="car9" route="route001_001_4_2" depart="30" departLane = "1" departSpeed="11.180000"/>
	<vehicle id="LX_181" type="car5" route="route002_001_3_4" depart="30" departLane = "2" departSpeed="11.180000"/>
	<vehicle id="LSX_182" type="car6" route="route002_001_4_1" depart="30" departLane = "2" departSpeed="11.180000"/>
	<vehicle id="SSX_183" type="car9" route="route001_002_1_3" depart="30" departLane = "1" departSpeed="11.180000"/>
	<vehicle id="SSX_184" type="car8" route="route001_002_2_4" depart="30" departLane = "1" departSpeed="11.180000"/>
	<vehicle id="SRX_185" type="car6" route="route001_001_1_3" depart="31" departLane = "1" departSpeed="11.180000"/>
	<vehicle id="SRSX_186" type="car5" route="route002_001_3_1" depart="31" departLane = "1" departSpeed="11.180000"/>
	<vehicle id="RX_187" type="car7" route="route002_001_4_3" depart="31" departLane = "0" departSpeed="11.180000"/>
	<vehicle id="LX_188" type="car7" route="route001_002_1_2" depart="31" departLane = "2" departSpeed="11.180000"/>
	<vehicle id="RX_189" type="car8" route="route001_002_2_1" depart="31" departLane = "0" departSpeed="11.180000"/>
	<vehicle id="RX_190" type="car8" route="route001_001_1_4" depart="32" departLane = "0" departSpeed="11.180000"/>
	<vehicle id="RLRX_191" type="car8" route="route001_001_4_3" depart="32" departLane = "0" departSpeed="11.180000"/>
	<vehicle id="LX_192" type="car6" route="route002_001_3_4" depart="32" departLane = "2" departSpeed="11.180000"/>
	<vehicle id="LRSX_193" type="car7" route="route002_001_4_1" depart="32" departLane = "2" departSpeed="11.180000"/>
	<vehicle id="LX_194" type="car5" route="route001_002_1_2" depart="32" departLane = "2" departSpeed="11.180000"/>
	<vehicle id="SLSX_195" type="car6" route="route001_002_2_4" depart="32" departLane = "1" departSpeed="11.180000"/>
	<vehicle id="SSX_196" type="car9" route="route002_002_2_4" depart="32" departLane = "1" departSpeed="11.180000"/>
	<vehicle id="RX_197" type="car6" route="route002_002_3_2" depart="32" departLane = "0" departSpeed="11.180000"/>
	<vehicle id="SSX_198" type="car5" route="route001_001_4_2" depart="33" departLane = "1" departSpeed="11.180000"/>
	<vehicle id="LX_199" type="car8" route="route002_001_3_4" depart="33" departLane = "2" departSpeed="11.180000"/>
	<vehicle id="SRX_200" type="car5" route="route002_001_4_2" depart="33" departLane = "1" departSpeed="11.180000"/>
	<vehicle id="SLX_201" type="car6" route="route001_002_1_3" depart="33" departLane = "1" departSpeed="11.180000"/>
	<vehicle id="LSX_202" type="car9" route="route001_002_2_3" depart="33" departLane = "2" departSpeed="11.180000"/>
	<vehicle id="SLX_203" type="car7" route="route002_002_2_4" depart="33" departLane = "1" departSpeed="11.180000"/>
	<vehicle id="LLX_204" type="car9" route="route002_002_3_4" depart="33" departLane = "2" departSpeed="11.180000"/>
	<vehicle id="LSX_205" type="car6" route="route001_001_1_2" depart="34" departLane = "2" departSpeed="11.180000"/>
	<vehicle id="LX_206" type="car8" route="route001_001_4_1" depart="34" departLane = "2" departSpeed="11.180000"/>
	<vehicle id="RLRX_207" type="car5" route="route002_001_3_2" depart="34" departLane = "0" departSpeed="11.180000"/>
	<vehicle id="RX_208" type="car8" route="route002_001_4_3" depart="34" departLane = "0" departSpeed="11.180000"/>
	<vehicle id="SRSX_209" type="car7" route="route001_002_1_3" depart="34" departLane = "1" departSpeed="11.180000"/>
	<vehicle id="SSX_210" type="car9" route="route001_002_2_4" depart="34" departLane = "1" departSpeed="11.180000"/>
	<vehicle id="RLSX_211" type="car6" route="route002_002_2_1" depart="34" departLane = "0" departSpeed="11.180000"/>
	<vehicle id="LLX_212" type="car7" route="route001_001_1_2" depart="35" departLane = "2" departSpeed="11.180000"/>
	<vehicle id="RX_213" type="car5" route="route002_001_4_3" depart="35" departLane = "0" departSpeed="11.180000"/>
	<vehicle id="RSX_214" type="car6" route="route001_002_1_4" depart="35" departLane = "0" departSpeed="11.180000"/>
	<vehicle id="SRX_215" type="car8" route="route001_002_2_4" depart="35" departLane = "1" departSpeed="11.180000"/>
	<vehicle id="SRLX_216" type="car6" route="route002_002_2_4" depart="35" departLane = "1" departSpeed="11.180000"/>
	<vehicle id="RX_217" type="car5" route="route002_002_3_2" depart="35" departLane = "0" departSpeed="11.180000"/>
	<vehicle id="LX_218" type="car7" route="route002_001_3_4" depart="36" departLane = "2" departSpeed="11.180000"/>
	<vehicle id="RX_219" type="car9" route="route001_002_2_1" depart="36" departLane = "0" departSpeed="11.180000"/>
	<vehicle id="LLX_220" type="car9" route="route002_002_3_4" depart="36" departLane = "2" departSpeed="11.180000"/>
	<vehicle id="SRX_221" type="car8" route="route001_001_1_3" depart="37" departLane = "1" departSpeed="11.180000"/>
	<vehicle id="RSX_222" type="car5" route="route001_001_4_3" depart="37" departLane = "0" departSpeed="11.180000"/>
	<vehicle id="RRX_223" type="car9" route="route002_001_3_2" depart="37" departLane = "0" departSpeed="11.180000"/>
	<vehicle id="LLX_224" type="car5" route="route002_001_4_1" depart="37" departLane = "2" departSpeed="11.180000"/>
	<vehicle id="SSX_225" type="car5" route="route001_002_2_4" depart="37" departLane = "1" departSpeed="11.180000"/>
	<vehicle id="SRSX_226" type="car6" route="route002_002_2_4" depart="37" departLane = "1" departSpeed="11.180000"/>
	<vehicle id="RX_227" type="car5" route="route002_002_3_2" depart="37" departLane = "0" departSpeed="11.180000"/>
	<vehicle id="LRLX_228" type="car8" route="route001_001_1_2" depart="38" departLane = "2" departSpeed="11.180000"/>
	<vehicle id="LX_229" type="car5" route="route001_001_4_1" depart="38" departLane = "2" departSpeed="11.180000"/>
	<vehicle id="LX_230" type="car7" route="route002_001_3_4" depart="38" departLane = "2" departSpeed="11.180000"/>
	<vehicle id="LLX_231" type="car5" route="route002_001_4_1" depart="38" departLane = "2" departSpeed="11.180000"/>
	<vehicle id="RSX_232" type="car5" route="route001_002_1_4" depart="38" departLane = "0" departSpeed="11.180000"/>