<routes>

	<vType id="car5" accel="100.0" decel="100.0" sigma="0.0" length="5" minGap="3.000000" maxSpeed="11.180000" tau="0.100000" carFollowModel="CACC" color="255,255,255"/>
	<vType id="car6" accel="100.0" decel="100.0" sigma="0.0" length="6" minGap="3.000000" maxSpeed="11.180000" tau="0.100000" carFollowModel="CACC" color="255,255,255"/>
	<vType id="car7" accel="100.0" decel="100.0" sigma="0.0" length="7" minGap="3.000000" maxSpeed="11.180000" tau="0.100000" carFollowModel="CACC" color="255,255,255"/>
	<vType id="car8" accel="100.0" decel="100.0" sigma="0.0" length="8" minGap="3.000000" maxSpeed="11.180000" tau="0.100000" carFollowModel="CACC" color="255,255,255"/>
	<vType id="car9" accel="100.0" decel="100.0" sigma="0.0" length="9" minGap="3.000000" maxSpeed="11.180000" tau="0.100000" carFollowModel="CACC" color="255,255,255"/>

	<route id="route0_1_2" edges=" 001_001_1"/>
	<route id="route0_1_3" edges=" 001_001_1"/>
	<route id="route0_1_4" edges=" 001_001_1"/>
	<route id="route0_2_1" edges=" 001_001_2"/>
	<route id="route0_2_3" edges=" 001_001_2"/>
	<route id="route0_2_4" edges=" 001_001_2"/>
	<route id="route0_3_1" edges=" 001_001_3"/>
	<route id="route0_3_2" edges=" 001_001_3"/>
	<route id="route0_3_4" edges=" 001_001_3"/>
	<route id="route0_4_1" edges=" 001_001_4"/>
	<route id="route0_4_2" edges=" 001_001_4"/>
	<route id="route0_4_3" edges=" 001_001_4"/>
	<route id="route1_1_2" edges=" 002_001_1"/>
	<route id="route1_1_3" edges=" 002_001_1"/>
	<route id="route1_1_4" edges=" 002_001_1"/>
	<route id="route1_2_1" edges=" 002_001_2"/>
	<route id="route1_2_3" edges=" 002_001_2"/>
	<route id="route1_2_4" edges=" 002_001_2"/>
	<route id="route1_3_1" edges=" 002_001_3"/>
	<route id="route1_3_2" edges=" 002_001_3"/>
	<route id="route1_3_4" edges=" 002_001_3"/>
	<route id="route1_4_1" edges=" 002_001_4"/>
	<route id="route1_4_2" edges=" 002_001_4"/>
	<route id="route1_4_3" edges=" 002_001_4"/>

	<vehicle id="SR_0" type="car7" route="route0_1_3" depart="0" departLane = "1" departSpeed="11.180000"/>
	<vehicle id="LS_1" type="car8" route="route0_2_3" depart="0" departLane = "2" departSpeed="11.180000"/>
	<vehicle id="RR_2" type="car5" route="route0_4_3" depart="0" departLane = "0" departSpeed="11.180000"/>
	<vehicle id="LX_3" type="car9" route="route1_2_3" depart="0" departLane = "2" departSpeed="11.180000"/>
	<vehicle id="LX_4" type="car6" route="route1_3_4" depart="0" departLane = "2" departSpeed="11.180000"/>
	<vehicle id="LX_5" type="car9" route="route0_1_2" depart="1" departLane = "2" departSpeed="11.180000"/>
	<vehicle id="SX_6" type="car8" route="route0_2_4" depart="1" departLane = "1" departSpeed="11.180000"/>
	<vehicle id="LX_7" type="car8" route="route0_4_1" depart="1" departLane = "2" departSpeed="11.180000"/>
	<vehicle id="SX_8" type="car7" route="route1_2_4" depart="1" departLane = "1" departSpeed="11.180000"/>
	<vehicle id="SL_9" type="car8" route="route1_3_1" depart="1" departLane = "1" departSpeed="11.180000"/>
	<vehicle id="RX_10" type="car8" route="route1_4_3" depart="1" departLane = "0" departSpeed="11.180000"/>
	<vehicle id="SL_11" type="car6" route="route0_1_3" depart="2" departLane = "1" departSpeed="11.180000"/>
	<vehicle id="SX_12" type="car9" route="route0_2_4" depart="2" departLane = "1" departSpeed="11.180000"/>
	<vehicle id="LX_13" type="car8" route="route0_4_1" depart="2" departLane = "2" departSpeed="11.180000"/>
	<vehicle id="SX_14" type="car8" route="route1_2_4" depart="2" departLane = "1" departSpeed="11.180000"/>
	<vehicle id="LR_15" type="car9" route="route1_4_1" depart="2" departLane = "2" departSpeed="11.180000"/>
	<vehicle id="SL_16" type="car9" route="route0_1_3" depart="3" departLane = "1" departSpeed="11.180000"/>
	<vehicle id="SX_17" type="car5" route="route0_2_4" depart="3" departLane = "1" departSpeed="11.180000"/>
	<vehicle id="RL_18" type="car6" route="route0_4_3" depart="3" departLane = "0" departSpeed="11.180000"/>
	<vehicle id="LX_19" type="car8" route="route1_3_4" depart="3" departLane = "2" departSpeed="11.180000"/>
	<vehicle id="SX_20" type="car7" route="route1_4_2" depart="3" departLane = "1" departSpeed="11.180000"/>
	<vehicle id="RX_21" type="car6" route="route0_1_4" depart="4" departLane = "0" departSpeed="11.180000"/>
	<vehicle id="RX_22" type="car7" route="route0_2_1" depart="4" departLane = "0" departSpeed="11.180000"/>
	<vehicle id="RR_23" type="car9" route="route1_2_1" depart="4" departLane = "0" departSpeed="11.180000"/>
	<vehicle id="RX_24" type="car9" route="route1_3_2" depart="4" departLane = "0" departSpeed="11.180000"/>
	<vehicle id="SX_25" type="car5" route="route1_4_2" depart="4" departLane = "1" departSpeed="11.180000"/>
	<vehicle id="LX_26" type="car9" route="route0_1_2" depart="5" departLane = "2" departSpeed="11.180000"/>
	<vehicle id="SX_27" type="car8" route="route0_4_2" depart="5" departLane = "1" departSpeed="11.180000"/>
	<vehicle id="SX_28" type="car9" route="route1_2_4" depart="5" departLane = "1" departSpeed="11.180000"/>
	<vehicle id="SL_29" type="car6" route="route1_3_1" depart="5" departLane = "1" departSpeed="11.180000"/>
	<vehicle id="SX_30" type="car9" route="route1_4_2" depart="5" departLane = "1" departSpeed="11.180000"/>
	<vehicle id="SX_31" type="car9" route="route0_2_4" depart="6" departLane = "1" departSpeed="11.180000"/>
	<vehicle id="LX_32" type="car5" route="route0_4_1" depart="6" departLane = "2" departSpeed="11.180000"/>
	<vehicle id="LX_33" type="car8" route="route1_2_3" depart="6" departLane = "2" departSpeed="11.180000"/>
	<vehicle id="SR_34" type="car5" route="route1_3_1" depart="6" departLane = "1" departSpeed="11.180000"/>
	<vehicle id="SX_35" type="car5" route="route1_4_2" depart="6" departLane = "1" departSpeed="11.180000"/>
	<vehicle id="LX_36" type="car6" route="route0_1_2" depart="7" departLane = "2" departSpeed="11.180000"/>
	<vehicle id="LS_37" type="car9" route="route0_2_3" depart="7" departLane = "2" departSpeed="11.180000"/>
	<vehicle id="LX_38" type="car9" route="route0_4_1" depart="7" departLane = "2" departSpeed="11.180000"/>
	<vehicle id="LX_39" type="car5" route="route1_2_3" depart="7" departLane = "2" departSpeed="11.180000"/>
	<vehicle id="SL_40" type="car5" route="route1_3_1" depart="7" departLane = "1" departSpeed="11.180000"/>
	<vehicle id="SX_41" type="car7" route="route1_4_2" depart="7" departLane = "1" departSpeed="11.180000"/>
	<vehicle id="SR_42" type="car5" route="route0_1_3" depart="8" departLane = "1" departSpeed="11.180000"/>
	<vehicle id="RX_43" type="car9" route="route0_2_1" depart="8" departLane = "0" departSpeed="11.180000"/>
	<vehicle id="RR_44" type="car9" route="route0_4_3" depart="8" departLane = "0" departSpeed="11.180000"/>
	<vehicle id="SX_45" type="car6" route="route1_2_4" depart="8" departLane = "1" departSpeed="11.180000"/>
	<vehicle id="RX_46" type="car7" route="route1_3_2" depart="8" departLane = "0" departSpeed="11.180000"/>
	<vehicle id="SX_47" type="car7" route="route1_4_2" depart="8" departLane = "1" departSpeed="11.180000"/>
	<vehicle id="SL_48" type="car8" route="route0_1_3" depart="9" departLane = "1" departSpeed="11.180000"/>
	<vehicle id="SX_49" type="car7" route="route0_4_2" depart="9" departLane = "1" departSpeed="11.180000"/>
	<vehicle id="LX_50" type="car6" route="route1_2_3" depart="9" departLane = "2" departSpeed="11.180000"/>
	<vehicle id="LX_51" type="car9" route="route1_3_4" depart="9" departLane = "2" departSpeed="11.180000"/>
	<vehicle id="RX_52" type="car7" route="route1_4_3" depart="9" departLane = "0" departSpeed="11.180000"/>
	<vehicle id="LX_53" type="car7" route="route0_1_2" depart="10" departLane = "2" departSpeed="11.180000"/>
	<vehicle id="RX_54" type="car5" route="route0_2_1" depart="10" departLane = "0" departSpeed="11.180000"/>
	<vehicle id="SX_55" type="car8" route="route0_4_2" depart="10" departLane = "1" departSpeed="11.180000"/>
	<vehicle id="RS_56" type="car8" route="route1_2_1" depart="10" departLane = "0" departSpeed="11.180000"/>
	<vehicle id="SL_57" type="car8" route="route1_3_1" depart="10" departLane = "1" departSpeed="11.180000"/>
	<vehicle id="LL_58" type="car8" route="route1_4_1" depart="10" departLane = "2" departSpeed="11.180000"/>
	<vehicle id="LX_59" type="car5" route="route0_1_2" depart="11" departLane = "2" departSpeed="11.180000"/>
	<vehicle id="LL_60" type="car8" route="route0_2_3" depart="11" departLane = "2" departSpeed="11.180000"/>
	<vehicle id="SX_61" type="car7" route="route1_2_4" depart="11" departLane = "1" departSpeed="11.180000"/>
	<vehicle id="LX_62" type="car6" route="route1_3_4" depart="11" departLane = "2" departSpeed="11.180000"/>
	<vehicle id="RX_63" type="car6" route="route1_4_3" depart="11" departLane = "0" departSpeed="11.180000"/>
	<vehicle id="RX_64" type="car7" route="route0_1_4" depart="12" departLane = "0" departSpeed="11.180000"/>
	<vehicle id="SX_65" type="car6" route="route0_2_4" depart="12" departLane = "1" departSpeed="11.180000"/>
	<vehicle id="RL_66" type="car5" route="route0_4_3" depart="12" departLane = "0" departSpeed="11.180000"/>
	<vehicle id="RR_67" type="car8" route="route1_2_1" depart="12" departLane = "0" departSpeed="11.180000"/>
	<vehicle id="RX_68" type="car6" route="route1_3_2" depart="12" departLane = "0" departSpeed="11.180000"/>
	<vehicle id="SX_69" type="car6" route="route1_4_2" depart="12" departLane = "1" departSpeed="11.180000"/>
	<vehicle id="RX_70" type="car7" route="route0_1_4" depart="13" departLane = "0" departSpeed="11.180000"/>
	<vehicle id="RX_71" type="car5" route="route0_2_1" depart="13" departLane = "0" departSpeed="11.180000"/>
	<vehicle id="SX_72" type="car6" route="route0_4_2" depart="13" departLane = "1" departSpeed="11.180000"/>
	<vehicle id="RS_73" type="car7" route="route1_2_1" depart="13" departLane = "0" departSpeed="11.180000"/>
	<vehicle id="SS_74" type="car5" route="route1_3_1" depart="13" departLane = "1" departSpeed="11.180000"/>
	<vehicle id="LL_75" type="car8" route="route1_4_1" depart="13" departLane = "2" departSpeed="11.180000"/>
	<vehicle id="RX_76" type="car7" route="route0_1_4" depart="14" departLane = "0" departSpeed="11.180000"/>
	<vehicle id="RX_77" type="car5" route="route0_2_1" depart="14" departLane = "0" departSpeed="11.180000"/>
	<vehicle id="RR_78" type="car5" route="route0_4_3" depart="14" departLane = "0" departSpeed="11.180000"/>
	<vehicle id="SX_79" type="car9" route="route1_2_4" depart="14" departLane = "1" departSpeed="11.180000"/>
	<vehicle id="LX_80" type="car6" route="route1_3_4" depart="14" departLane = "2" departSpeed="11.180000"/>
	<vehicle id="SX_81" type="car8" route="route1_4_2" depart="14" departLane = "1" departSpeed="11.180000"/>
	<vehicle id="RX_82" type="car6" route="route0_1_4" depart="15" departLane = "0" departSpeed="11.180000"/>
	<vehicle id="RX_83" type="car6" route="route0_2_1" depart="15" departLane = "0" departSpeed="11.180000"/>
	<vehicle id="SX_84" type="car6" route="route0_4_2" depart="15" departLane = "1" departSpeed="11.180000"/>
	<vehicle id="SX_85" type="car7" route="route1_2_4" depart="15" departLane = "1" departSpeed="11.180000"/>
	<vehicle id="LX_86" type="car7" route="route1_3_4" depart="15" departLane = "2" departSpeed="11.180000"/>
	<vehicle id="LX_87" type="car5" route="route0_1_2" depart="16" departLane = "2" departSpeed="11.180000"/>
	<vehicle id="LX_88" type="car9" route="route0_4_1" depart="16" departLane = "2" departSpeed="11.180000"/>
	<vehicle id="RS_89" type="car9" route="route1_2_1" depart="16" departLane = "0" departSpeed="11.180000"/>
	<vehicle id="LS_90" type="car8" route="route1_4_1" depart="16" departLane = "2" departSpeed="11.180000"/>
	<vehicle id="LX_91" type="car8" route="route0_1_2" depart="17" departLane = "2" departSpeed="11.180000"/>
	<vehicle id="LR_92" type="car6" route="route0_2_3" depart="17" departLane = "2" departSpeed="11.180000"/>
	<vehicle id="SX_93" type="car6" route="route0_4_2" depart="17" departLane = "1" departSpeed="11.180000"/>
	<vehicle id="SX_94" type="car7" route="route1_2_4" depart="17" departLane = "1" departSpeed="11.180000"/>
	<vehicle id="LX_95" type="car9" route="route1_3_4" depart="17" departLane = "2" departSpeed="11.180000"/>
	<vehicle id="SX_96" type="car9" route="route1_4_2" depart="17" departLane = "1" departSpeed="11.180000"/>
	<vehicle id="RX_97" type="car9" route="route0_1_4" depart="18" departLane = "0" departSpeed="11.180000"/>
	<vehicle id="SX_98" type="car9" route="route0_2_4" depart="18" departLane = "1" departSpeed="11.180000"/>
	<vehicle id="LX_99" type="car5" route="route0_4_1" depart="18" departLane = "2" departSpeed="11.180000"/>
	<vehicle id="LX_100" type="car5" route="route1_2_3" depart="18" departLane = "2" departSpeed="11.180000"/>
	<vehicle id="LX_101" type="car8" route="route1_3_4" depart="18" departLane = "2" departSpeed="11.180000"/>
	<vehicle id="RX_102" type="car7" route="route1_4_3" depart="18" departLane = "0" departSpeed="11.180000"/>
	<vehicle id="SX_103" type="car6" route="route0_2_4" depart="19" departLane = "1" departSpeed="11.180000"/>
	<vehicle id="RL_104" type="car9" route="route0_4_3" depart="19" departLane = "0" departSpeed="11.180000"/>
	<vehicle id="LX_105" type="car8" route="route1_2_3" depart="19" departLane = "2" departSpeed="11.180000"/>
	<vehicle id="RX_106" type="car5" route="route1_3_2" depart="19" departLane = "0" departSpeed="11.180000"/>
	<vehicle id="RX_107" type="car9" route="route1_4_3" depart="19" departLane = "0" departSpeed="11.180000"/>
	<vehicle id="SL_108" type="car8" route="route0_1_3" depart="20" departLane = "1" departSpeed="11.180000"/>
	<vehicle id="RL_109" type="car9" route="route0_4_3" depart="20" departLane = "0" departSpeed="11.180000"/>
	<vehicle id="RL_110" type="car8" route="route1_2_1" depart="20" departLane = "0" departSpeed="11.180000"/>
	<vehicle id="RX_111" type="car5" route="route1_3_2" depart="20" departLane = "0" departSpeed="11.180000"/>
	<vehicle id="RX_112" type="car6" route="route1_4_3" depart="20" departLane = "0" departSpeed="11.180000"/>
	<vehicle id="RX_113" type="car7" route="route0_1_4" depart="21" departLane = "0" departSpeed="11.180000"/>
	<vehicle id="SX_114" type="car8" route="route0_2_4" depart="21" departLane = "1" departSpeed="11.180000"/>
	<vehicle id="RL_115" type="car5" route="route0_4_3" depart="21" departLane = "0" departSpeed="11.180000"/>
	<vehicle id="LX_116" type="car5" route="route1_2_3" depart="21" departLane = "2" departSpeed="11.180000"/>
	<vehicle id="SR_117" type="car9" route="route1_3_1" depart="21" departLane = "1" departSpeed="11.180000"/>
	<vehicle id="LR_118" type="car5" route="route1_4_1" depart="21" departLane = "2" departSpeed="11.180000"/>
	<vehicle id="RX_119" type="car6" route="route0_1_4" depart="22" departLane = "0" departSpeed="11.180000"/>
	<vehicle id="RX_120" type="car6" route="route0_2_1" depart="22" departLane = "0" departSpeed="11.180000"/>
	<vehicle id="SX_121" type="car7" route="route0_4_2" depart="22" departLane = "1" departSpeed="11.180000"/>
	<vehicle id="LX_122" type="car5" route="route1_2_3" depart="22" departLane = "2" departSpeed="11.180000"/>
	<vehicle id="LX_123" type="car5" route="route1_3_4" depart="22" departLane = "2" departSpeed="11.180000"/>
	<vehicle id="RX_124" type="car8" route="route1_4_3" depart="22" departLane = "0" departSpeed="11.180000"/>
	<vehicle id="RX_125" type="car5" route="route0_1_4" depart="23" departLane = "0" departSpeed="11.180000"/>
	<vehicle id="RX_126" type="car6" route="route0_2_1" depart="23" departLane = "0" departSpeed="11.180000"/>
	<vehicle id="SX_127" type="car8" route="route0_4_2" depart="23" departLane = "1" departSpeed="11.180000"/>
	<vehicle id="LX_128" type="car9" route="route1_2_3" depart="23" departLane = "2" departSpeed="11.180000"/>
	<vehicle id="RX_129" type="car7" route="route1_3_2" depart="23" departLane = "0" departSpeed="11.180000"/>
	<vehicle id="RX_130" type="car7" route="route1_4_3" depart="23" departLane = "0" departSpeed="11.180000"/>
	<vehicle id="LX_131" type="car7" route="route0_1_2" depart="24" departLane = "2" departSpeed="11.180000"/>
	<vehicle id="LR_132" type="car7" route="route0_2_3" depart="24" departLane = "2" departSpeed="11.180000"/>
	<vehicle id="RL_133" type="car7" route="route0_4_3" depart="24" departLane = "0" departSpeed="11.180000"/>
	<vehicle id="LX_134" type="car5" route="route1_2_3" depart="24" departLane = "2" departSpeed="11.180000"/>
	<vehicle id="SS_135" type="car7" route="route1_3_1" depart="24" departLane = "1" departSpeed="11.180000"/>
	<vehicle id="LR_136" type="car9" route="route1_4_1" depart="24" departLane = "2" departSpeed="11.180000"/>
	<vehicle id="SR_137" type="car9" route="route0_1_3" depart="25" departLane = "1" departSpeed="11.180000"/>
	<vehicle id="LR_138" type="car6" route="route0_2_3" depart="25" departLane = "2" departSpeed="11.180000"/>
	<vehicle id="RS_139" type="car5" route="route0_4_3" depart="25" departLane = "0" departSpeed="11.180000"/>
	<vehicle id="RR_140" type="car8" route="route1_2_1" depart="25" departLane = "0" departSpeed="11.180000"/>
	<vehicle id="RX_141" type="car8" route="route1_3_2" depart="25" departLane = "0" departSpeed="11.180000"/>
	<vehicle id="LL_142" type="car8" route="route1_4_1" depart="25" departLane = "2" departSpeed="11.180000"/>
	<vehicle id="RX_143" type="car5" route="route0_1_4" depart="26" departLane = "0" departSpeed="11.180000"/>
	<vehicle id="LS_144" type="car5" route="route0_2_3" depart="26" departLane = "2" departSpeed="11.180000"/>
	<vehicle id="LX_145" type="car8" route="route0_4_1" depart="26" departLane = "2" departSpeed="11.180000"/>
	<vehicle id="RS_146" type="car5" route="route1_2_1" depart="26" departLane = "0" departSpeed="11.180000"/>
	<vehicle id="RX_147" type="car9" route="route1_3_2" depart="26" departLane = "0" departSpeed="11.180000"/>
	<vehicle id="LS_148" type="car5" route="route1_4_1" depart="26" departLane = "2" departSpeed="11.180000"/>
	<vehicle id="LX_149" type="car5" route="route0_1_2" depart="27" departLane = "2" departSpeed="11.180000"/>
	<vehicle id="RX_150" type="car8" route="route0_2_1" depart="27" departLane = "0" departSpeed="11.180000"/>
	<vehicle id="SX_151" type="car9" route="route0_4_2" depart="27" departLane = "1" departSpeed="11.180000"/>
	<vehicle id="LX_152" type="car8" route="route1_2_3" depart="27" departLane = "2" departSpeed="11.180000"/>
	<vehicle id="LX_153" type="car8" route="route1_3_4" depart="27" departLane = "2" departSpeed="11.180000"/>
	<vehicle id="SX_154" type="car8" route="route1_4_2" depart="27" departLane = "1" departSpeed="11.180000"/>
	<vehicle id="LX_155" type="car8" route="route0_1_2" depart="28" departLane = "2" departSpeed="11.180000"/>
	<vehicle id="LX_156" type="car6" route="route0_4_1" depart="28" departLane = "2" departSpeed="11.180000"/>
	<vehicle id="SX_157" type="car9" route="route1_2_4" depart="28" departLane = "1" departSpeed="11.180000"/>
	<vehicle id="SS_158" type="car5" route="route1_3_1" depart="28" departLane = "1" departSpeed="11.180000"/>
	<vehicle id="SX_159" type="car8" route="route1_4_2" depart="28" departLane = "1" departSpeed="11.180000"/>
	<vehicle id="SS_160" type="car6" route="route0_1_3" depart="29" departLane = "1" departSpeed="11.180000"/>
	<vehicle id="LL_161" type="car6" route="route0_2_3" depart="29" departLane = "2" departSpeed="11.180000"/>
	<vehicle id="RL_162" type="car7" route="route0_4_3" depart="29" departLane = "0" departSpeed="11.180000"/>
	<vehicle id="LX_163" type="car7" route="route1_2_3" depart="29" departLane = "2" departSpeed="11.180000"/>
	<vehicle id="LS_164" type="car8" route="route1_4_1" depart="29" departLane = "2" departSpeed="11.180000"/>
	<vehicle id="LX_165" type="car8" route="route0_1_2" depart="30" departLane = "2" departSpeed="11.180000"/>
	<vehicle id="LS_166" type="car8" route="route0_2_3" depart="30" departLane = "2" departSpeed="11.180000"/>
	<vehicle id="LX_167" type="car7" route="route0_4_1" depart="30" departLane = "2" departSpeed="11.180000"/>
	<vehicle id="RR_168" type="car9" route="route1_2_1" depart="30" departLane = "0" departSpeed="11.180000"/>
	<vehicle id="SR_169" type="car5" route="route1_3_1" depart="30" departLane = "1" departSpeed="11.180000"/>
	<vehicle id="SX_170" type="car9" route="route1_4_2" depart="30" departLane = "1" departSpeed="11.180000"/>
	<vehicle id="LX_171" type="car7" route="route0_1_2" depart="31" departLane = "2" departSpeed="11.180000"/>
	<vehicle id="SX_172" type="car5" route="route0_2_4" depart="31" departLane = "1" departSpeed="11.180000"/>
	<vehicle id="SX_173" type="car5" route="route0_4_2" depart="31" departLane = "1" departSpeed="11.180000"/>
	<vehicle id="SX_174" type="car6" route="route1_2_4" depart="31" departLane = "1" departSpeed="11.180000"/>
	<vehicle id="LX_175" type="car8" route="route1_3_4" depart="31" departLane = "2" departSpeed="11.180000"/>
	<vehicle id="LX_176" type="car8" route="route0_1_2" depart="32" departLane = "2" departSpeed="11.180000"/>
	<vehicle id="RX_177" type="car9" route="route0_2_1" depart="32" departLane = "0" departSpeed="11.180000"/>
	<vehicle id="LX_178" type="car6" route="route0_4_1" depart="32" departLane = "2" departSpeed="11.180000"/>
	<vehicle id="SX_179" type="car5" route="route1_2_4" depart="32" departLane = "1" departSpeed="11.180000"/>
	<vehicle id="RX_180" type="car6" route="route1_3_2" depart="32" departLane = "0" departSpeed="11.180000"/>
	<vehicle id="LL_181" type="car6" route="route1_4_1" depart="32" departLane = "2" departSpeed="11.180000"/>
	<vehicle id="RX_182" type="car8" route="route0_1_4" depart="33" departLane = "0" departSpeed="11.180000"/>
	<vehicle id="SX_183" type="car9" route="route0_2_4" depart="33" departLane = "1" departSpeed="11.180000"/>
	<vehicle id="SX_184" type="car7" route="route0_4_2" depart="33" departLane = "1" departSpeed="11.180000"/>
	<vehicle id="LX_185" type="car9" route="route1_2_3" depart="33" departLane = "2" departSpeed="11.180000"/>
	<vehicle id="SL_186" type="car7" route="route1_3_1" depart="33" departLane = "1" departSpeed="11.180000"/>
	<vehicle id="LR_187" type="car8" route="route1_4_1" depart="33" departLane = "2" departSpeed="11.180000"/>
	<vehicle id="LX_188" type="car7" route="route0_1_2" depart="34" departLane = "2" departSpeed="11.180000"/>
	<vehicle id="LR_189" type="car9" route="route0_2_3" depart="34" departLane = "2" departSpeed="11.180000"/>
	<vehicle id="RS_190" type="car6" route="route0_4_3" depart="34" departLane = "0" departSpeed="11.180000"/>
	<vehicle id="RS_191" type="car8" route="route1_2_1" depart="34" departLane = "0" departSpeed="11.180000"/>
	<vehicle id="SR_192" type="car9" route="route1_3_1" depart="34" departLane = "1" departSpeed="11.180000"/>
	<vehicle id="LR_193" type="car6" route="route1_4_1" depart="34" departLane = "2" departSpeed="11.180000"/>
	<vehicle id="LX_194" type="car6" route="route0_1_2" depart="35" departLane = "2" departSpeed="11.180000"/>
	<vehicle id="RX_195" type="car8" route="route0_2_1" depart="35" departLane = "0" departSpeed="11.180000"/>
	<vehicle id="RS_196" type="car9" route="route0_4_3" depart="35" departLane = "0" departSpeed="11.180000"/>
	<vehicle id="RS_197" type="car9" route="route1_2_1" depart="35" departLane = "0" departSpeed="11.180000"/>
	<vehicle id="RX_198" type="car7" route="route1_3_2" depart="35" departLane = "0" departSpeed="11.180000"/>
	<vehicle id="LS_199" type="car5" route="route1_4_1" depart="35" departLane = "2" departSpeed="11.180000"/>
	<vehicle id="RX_200" type="car9" route="route0_1_4" depart="36" departLane = "0" departSpeed="11.180000"/>
	<vehicle id="RX_201" type="car6" route="route0_2_1" depart="36" departLane = "0" departSpeed="11.180000"/>
	<vehicle id="LX_202" type="car8" route="route0_4_1" depart="36" departLane = "2" departSpeed="11.180000"/>
	<vehicle id="LX_203" type="car6" route="route1_2_3" depart="36" departLane = "2" departSpeed="11.180000"/>
	<vehicle id="RX_204" type="car7" route="route1_3_2" depart="36" departLane = "0" departSpeed="11.180000"/>
	<vehicle id="SX_205" type="car7" route="route1_4_2" depart="36" departLane = "1" departSpeed="11.180000"/>
	<vehicle id="LR_206" type="car7" route="route0_2_3" depart="37" departLane = "2" departSpeed="11.180000"/>
	<vehicle id="SX_207" type="car6" route="route0_4_2" depart="37" departLane = "1" departSpeed="11.180000"/>
	<vehicle id="RS_208" type="car5" route="route1_2_1" depart="37" departLane = "0" departSpeed="11.180000"/>
	<vehicle id="SS_209" type="car9" route="route1_3_1" depart="37" departLane = "1" departSpeed="11.180000"/>
	<vehicle id="LR_210" type="car9" route="route1_4_1" depart="37" departLane = "2" departSpeed="11.180000"/>
	<vehicle id="RX_211" type="car8" route="route0_1_4" depart="38" departLane = "0" departSpeed="11.180000"/>
	<vehicle id="RX_212" type="car6" route="route0_2_1" depart="38" departLane = "0" departSpeed="11.180000"/>
	<vehicle id="RL_213" type="car8" route="route0_4_3" depart="38" departLane = "0" departSpeed="11.180000"/>
	<vehicle id="RR_214" type="car6" route="route1_2_1" depart="38" departLane = "0" departSpeed="11.180000"/>
	<vehicle id="SS_215" type="car9" route="route1_3_1" depart="38" departLane = "1" departSpeed="11.180000"/>
	<vehicle id="LR_216" type="car7" route="route1_4_1" depart="38" departLane = "2" departSpeed="11.180000"/>
	<vehicle id="LX_217" type="car7" route="route0_1_2" depart="39" departLane = "2" departSpeed="11.180000"/>
	<vehicle id="SX_218" type="car8" route="route0_2_4" depart="39" departLane = "1" departSpeed="11.180000"/>
	<vehicle id="LX_219" type="car7" route="route0_4_1" depart="39" departLane = "2" departSpeed="11.180000"/>
	<vehicle id="LX_220" type="car8" route="route1_2_3" depart="39" departLane = "2" departSpeed="11.180000"/>
	<vehicle id="SS_221" type="car5" route="route1_3_1" depart="39" departLane = "1" departSpeed="11.180000"/>
	<vehicle id="RX_222" type="car8" route="route1_4_3" depart="39" departLane = "0" departSpeed="11.180000"/>
	<vehicle id="RX_223" type="car9" route="route0_1_4" depart="40" departLane = "0" departSpeed="11.180000"/>
	<vehicle id="RX_224" type="car6" route="route0_2_1" depart="40" departLane = "0" departSpeed="11.180000"/>
	<vehicle id="LX_225" type="car7" route="route0_4_1" depart="40" departLane = "2" departSpeed="11.180000"/>
	<vehicle id="SX_226" type="car8" route="route1_2_4" depart="40" departLane = "1" departSpeed="11.180000"/>
	<vehicle id="SS_227" type="car6" route="route1_3_1" depart="40" departLane = "1" departSpeed="11.180000"/>
	<vehicle id="SX_228" type="car5" route="route1_4_2" depart="40" departLane = "1" departSpeed="11.180000"/>
	<vehicle id="SR_229" type="car8" route="route0_1_3" depart="41" departLane = "1" departSpeed="11.180000"/>
	<vehicle id="SX_230" type="car8" route="route0_2_4" depart="41" departLane = "1" departSpeed="11.180000"/>
	<vehicle id="SX_231" type="car6" route="route0_4_2" depart="41" departLane = "1" departSpeed="11.180000"/>
	<vehicle id="RL_232" type="car9" route="route1_2_1" depart="41" departLane = "0" departSpeed="11.180000"/>
	<vehicle id="SL_233" type="car7" route="route1_3_1" depart="41" departLane = "1" departSpeed="11.180000"/>
	<vehicle id="LL_234" type="car8" route="route1_4_1" depart="41" departLane = "2" departSpeed="11.180000"/>
	<vehicle id="LX_235" type="car6" route="route0_1_2" depart="42" departLane = "2" departSpeed="11.180000"/>
	<vehicle id="LS_236" type="car7" route="route0_2_3" depart="42" departLane = "2" departSpeed="11.180000"/>
	<vehicle id="SX_237" type="car6" route="route0_4_2" depart="42" departLane = "1" departSpeed="11.180000"/>
	<vehicle id="RS_238" type="car5" route="route1_2_1" depart="42" departLane = "0" departSpeed="11.180000"/>
	<vehicle id="RX_239" type="car5" route="route1_3_2" depart="42" departLane = "0" departSpeed="11.180000"/>
	<vehicle id="SX_240" type="car8" route="route1_4_2" depart="42" departLane = "1" departSpeed="11.180000"/>
	<vehicle id="RX_241" type="car5" route="route0_1_4" depart="43" departLane = "0" departSpeed="11.180000"/>
	<vehicle id="SX_242" type="car7" route="route0_2_4" depart="43" departLane = "1" departSpeed="11.180000"/>
	<vehicle id="SX_243" type="car9" route="route0_4_2" depart="43" departLane = "1" departSpeed="11.180000"/>
	<vehicle id="LX_244" type="car7" route="route1_2_3" depart="43" departLane = "2" departSpeed="11.180000"/>
	<vehicle id="RX_245" type="car6" route="route1_3_2" depart="43" departLane = "0" departSpeed="11.180000"/>
	<vehicle id="RX_246" type="car7" route="route1_4_3" depart="43" departLane = "0" departSpeed="11.180000"/>
	<vehicle id="LX_247" type="car6" route="route0_1_2" depart="44" departLane = "2" departSpeed="11.180000"/>
	<vehicle id="SX_248" type="car8" route="route0_2_4" depart="44" departLane = "1" departSpeed="11.180000"/>
	<vehicle id="RL_249" type="car9" route="route0_4_3" depart="44" departLane = "0" departSpeed="11.180000"/>
	<vehicle id="LX_250" type="car9" route="route1_2_3" depart="44" departLane = "2" departSpeed="11.180000"/>
	<vehicle id="RX_251" type="car7" route="route1_3_2" depart="44" departLane = "0" departSpeed="11.180000"/>
	<vehicle id="LR_252" type="car8" route="route1_4_1" depart="44" departLane = "2" departSpeed="11.180000"/>
	<vehicle id="SX_253" type="car6" route="route0_2_4" depart="45" departLane = "1" departSpeed="11.180000"/>
	<vehicle id="RS_254" type="car7" route="route0_4_3" depart="45" departLane = "0" departSpeed="11.180000"/>
	<vehicle id="RS_255" type="car8" route="route1_2_1" depart="45" departLane = "0" departSpeed="11.180000"/>
	<vehicle id="SL_256" type="car8" route="route1_3_1" depart="45" departLane = "1" departSpeed="11.180000"/>
	<vehicle id="SX_257" type="car7" route="route1_4_2" depart="45" departLane = "1" departSpeed="11.180000"/>
	<vehicle id="SR_258" type="car7" route="route0_1_3" depart="46" departLane = "1" departSpeed="11.180000"/>
	<vehicle id="RX_259" type="car7" route="route0_2_1" depart="46" departLane = "0" departSpeed="11.180000"/>
	<vehicle id="LX_260" type="car7" route="route0_4_1" depart="46" departLane = "2" departSpeed="11.180000"/>