<routes>

	<vType id="car5" accel="100.0" decel="100.0" sigma="0.0" length="5" minGap="1.0" maxSpeed="11.180000" carFollowModel="CACC" color="255,255,255"/>
	<vType id="car6" accel="100.0" decel="100.0" sigma="0.0" length="6" minGap="1.0" maxSpeed="11.180000" carFollowModel="CACC" color="255,255,255"/>
	<vType id="car7" accel="100.0" decel="100.0" sigma="0.0" length="7" minGap="1.0" maxSpeed="11.180000" carFollowModel="CACC" color="255,255,255"/>
	<vType id="car8" accel="100.0" decel="100.0" sigma="0.0" length="8" minGap="1.0" maxSpeed="11.180000" carFollowModel="CACC" color="255,255,255"/>
	<vType id="car9" accel="100.0" decel="100.0" sigma="0.0" length="9" minGap="1.0" maxSpeed="11.180000" carFollowModel="CACC" color="255,255,255"/>

	<route id="route1_2" edges=" 1 -2"/>
	<route id="route1_3" edges=" 1 -3"/>
	<route id="route1_4" edges=" 1 -4"/>
	<route id="route2_1" edges=" 2 -1"/>
	<route id="route2_3" edges=" 2 -3"/>
	<route id="route2_4" edges=" 2 -4"/>
	<route id="route3_1" edges=" 3 -1"/>
	<route id="route3_2" edges=" 3 -2"/>
	<route id="route3_4" edges=" 3 -4"/>
	<route id="route4_1" edges=" 4 -1"/>
	<route id="route4_2" edges=" 4 -2"/>
	<route id="route4_3" edges=" 4 -3"/>

	<vehicle id="S_0" type="car9" route="route1_3" depart="2" departLane = "0" />
	<vehicle id="R_1" type="car8" route="route4_3" depart="2" departLane = "1" />
	<vehicle id="L_2" type="car7" route="route4_1" depart="3" departLane = "0" />
	<vehicle id="L_3" type="car7" route="route1_2" depart="5" departLane = "0" />
	<vehicle id="L_4" type="car7" route="route4_1" depart="6" departLane = "2" />
	<vehicle id="L_5" type="car8" route="route3_4" depart="11" departLane = "0" />
	<vehicle id="L_6" type="car8" route="route4_1" depart="14" departLane = "0" />
	<vehicle id="S_7" type="car9" route="route2_4" depart="19" departLane = "2" />
	<vehicle id="S_8" type="car7" route="route1_3" depart="21" departLane = "2" />
	<vehicle id="S_9" type="car5" route="route3_1" depart="23" departLane = "0" />
	<vehicle id="S_10" type="car5" route="route4_2" depart="25" departLane = "0" />
	<vehicle id="R_11" type="car7" route="route2_1" depart="27" departLane = "0" />
	<vehicle id="L_12" type="car7" route="route1_2" depart="29" departLane = "1" />
	<vehicle id="R_13" type="car5" route="route1_4" depart="31" departLane = "0" />
	<vehicle id="L_14" type="car9" route="route1_2" depart="35" departLane = "0" />
	<vehicle id="R_15" type="car5" route="route2_1" depart="37" departLane = "2" />
	<vehicle id="S_16" type="car6" route="route4_2" depart="42" departLane = "0" />
	<vehicle id="S_17" type="car9" route="route3_1" depart="46" departLane = "0" />
	<vehicle id="L_18" type="car9" route="route2_3" depart="50" departLane = "0" />
	<vehicle id="L_19" type="car9" route="route3_4" depart="52" departLane = "0" />
	<vehicle id="R_20" type="car5" route="route2_1" depart="54" departLane = "2" />
	<vehicle id="R_21" type="car9" route="route1_4" depart="55" departLane = "0" />
	<vehicle id="L_22" type="car9" route="route1_2" depart="59" departLane = "0" />
	<vehicle id="R_23" type="car9" route="route2_1" depart="60" departLane = "2" />
	<vehicle id="R_24" type="car9" route="route3_2" depart="63" departLane = "0" />
	<vehicle id="R_25" type="car5" route="route4_3" depart="67" departLane = "0" />
	<vehicle id="L_26" type="car8" route="route2_3" depart="68" departLane = "0" />
	<vehicle id="L_27" type="car5" route="route2_3" depart="70" departLane = "2" />
	<vehicle id="L_28" type="car9" route="route2_3" depart="73" departLane = "0" />
	<vehicle id="R_29" type="car9" route="route2_1" depart="76" departLane = "2" />
	<vehicle id="L_30" type="car7" route="route2_3" depart="78" departLane = "1" />
	<vehicle id="S_31" type="car5" route="route4_2" depart="78" departLane = "1" />
	<vehicle id="R_32" type="car7" route="route4_3" depart="80" departLane = "1" />
	<vehicle id="S_33" type="car7" route="route3_1" depart="84" departLane = "0" />
	<vehicle id="R_34" type="car8" route="route4_3" depart="89" departLane = "2" />
	<vehicle id="L_35" type="car9" route="route1_2" depart="91" departLane = "2" />
	<vehicle id="R_36" type="car7" route="route1_4" depart="98" departLane = "0" />
	<vehicle id="R_37" type="car8" route="route2_1" depart="98" departLane = "1" />
	<vehicle id="L_38" type="car7" route="route4_1" depart="106" departLane = "1" />
	<vehicle id="R_39" type="car7" route="route1_4" depart="109" departLane = "0" />
	<vehicle id="R_40" type="car7" route="route4_3" depart="112" departLane = "1" />
	<vehicle id="R_41" type="car8" route="route2_1" depart="120" departLane = "1" />
	<vehicle id="L_42" type="car9" route="route2_3" depart="121" departLane = "1" />
	<vehicle id="R_43" type="car7" route="route3_2" depart="123" departLane = "2" />
	<vehicle id="L_44" type="car8" route="route3_4" depart="128" departLane = "2" />
	<vehicle id="S_45" type="car5" route="route2_4" depart="135" departLane = "0" />
	<vehicle id="R_46" type="car9" route="route2_1" depart="136" departLane = "2" />
	<vehicle id="L_47" type="car7" route="route1_2" depart="138" departLane = "1" />
	<vehicle id="L_48" type="car9" route="route2_3" depart="141" departLane = "2" />
	<vehicle id="L_49" type="car8" route="route4_1" depart="143" departLane = "0" />
	<vehicle id="L_50" type="car5" route="route1_2" depart="144" departLane = "1" />
	<vehicle id="R_51" type="car9" route="route1_4" depart="145" departLane = "0" />
	<vehicle id="L_52" type="car5" route="route2_3" depart="145" departLane = "0" />
	<vehicle id="L_53" type="car8" route="route3_4" depart="145" departLane = "0" />
	<vehicle id="S_54" type="car7" route="route1_3" depart="148" departLane = "2" />
	<vehicle id="L_55" type="car7" route="route2_3" depart="149" departLane = "1" />
	<vehicle id="S_56" type="car9" route="route1_3" depart="153" departLane = "0" />
	<vehicle id="L_57" type="car7" route="route1_2" depart="154" departLane = "1" />
	<vehicle id="S_58" type="car5" route="route2_4" depart="155" departLane = "1" />
	<vehicle id="R_59" type="car6" route="route4_3" depart="155" departLane = "0" />
	<vehicle id="L_60" type="car7" route="route2_3" depart="163" departLane = "1" />
	<vehicle id="S_61" type="car8" route="route3_1" depart="163" departLane = "2" />
	<vehicle id="R_62" type="car7" route="route3_2" depart="166" departLane = "2" />
	<vehicle id="S_63" type="car7" route="route1_3" depart="174" departLane = "0" />
	<vehicle id="L_64" type="car9" route="route3_4" depart="175" departLane = "0" />
	<vehicle id="S_65" type="car9" route="route3_1" depart="176" departLane = "1" />
	<vehicle id="S_66" type="car7" route="route4_2" depart="182" departLane = "2" />
	<vehicle id="S_67" type="car6" route="route4_2" depart="183" departLane = "0" />
	<vehicle id="R_68" type="car6" route="route3_2" depart="194" departLane = "0" />
	<vehicle id="S_69" type="car9" route="route3_1" depart="198" departLane = "0" />
	<vehicle id="R_70" type="car7" route="route1_4" depart="199" departLane = "0" />
	<vehicle id="L_71" type="car9" route="route2_3" depart="200" departLane = "1" />
	<vehicle id="L_72" type="car8" route="route4_1" depart="204" departLane = "1" />
	<vehicle id="R_73" type="car8" route="route2_1" depart="210" departLane = "2" />
	<vehicle id="S_74" type="car8" route="route3_1" depart="218" departLane = "0" />
	<vehicle id="L_75" type="car8" route="route1_2" depart="221" departLane = "1" />
	<vehicle id="R_76" type="car6" route="route1_4" depart="223" departLane = "0" />
	<vehicle id="S_77" type="car8" route="route3_1" depart="223" departLane = "0" />
	<vehicle id="R_78" type="car5" route="route4_3" depart="224" departLane = "0" />
	<vehicle id="R_79" type="car8" route="route4_3" depart="225" departLane = "0" />
	<vehicle id="R_80" type="car5" route="route4_3" depart="226" departLane = "0" />
	<vehicle id="S_81" type="car5" route="route2_4" depart="233" departLane = "1" />
	<vehicle id="R_82" type="car8" route="route3_2" depart="237" departLane = "0" />
	<vehicle id="S_83" type="car9" route="route3_1" depart="242" departLane = "2" />
	<vehicle id="L_84" type="car5" route="route3_4" depart="245" departLane = "1" />
	<vehicle id="R_85" type="car5" route="route1_4" depart="246" departLane = "0" />
	<vehicle id="S_86" type="car6" route="route1_3" depart="252" departLane = "1" />
	<vehicle id="R_87" type="car9" route="route4_3" depart="253" departLane = "2" />
	<vehicle id="S_88" type="car6" route="route3_1" depart="255" departLane = "2" />
	<vehicle id="S_89" type="car9" route="route3_1" depart="256" departLane = "1" />
	<vehicle id="L_90" type="car5" route="route4_1" depart="260" departLane = "0" />
	<vehicle id="R_91" type="car8" route="route1_4" depart="263" departLane = "1" />
	<vehicle id="S_92" type="car9" route="route2_4" depart="264" departLane = "2" />
	<vehicle id="S_93" type="car6" route="route3_1" depart="271" departLane = "2" />
	<vehicle id="S_94" type="car5" route="route2_4" depart="282" departLane = "2" />
	<vehicle id="L_95" type="car6" route="route1_2" depart="284" departLane = "0" />
	<vehicle id="R_96" type="car6" route="route3_2" depart="286" departLane = "2" />
	<vehicle id="S_97" type="car6" route="route3_1" depart="288" departLane = "2" />
	<vehicle id="L_98" type="car6" route="route2_3" depart="293" departLane = "0" />
	<vehicle id="S_99" type="car5" route="route1_3" depart="297" departLane = "2" />
	<vehicle id="L_100" type="car9" route="route4_1" depart="297" departLane = "0" />
	<vehicle id="S_101" type="car5" route="route4_2" depart="298" departLane = "2" />
	<vehicle id="R_102" type="car7" route="route1_4" depart="302" departLane = "2" />
	<vehicle id="S_103" type="car9" route="route3_1" depart="303" departLane = "1" />
	<vehicle id="R_104" type="car6" route="route1_4" depart="311" departLane = "2" />
	<vehicle id="S_105" type="car6" route="route4_2" depart="313" departLane = "0" />
	<vehicle id="L_106" type="car8" route="route3_4" depart="316" departLane = "0" />
	<vehicle id="R_107" type="car9" route="route2_1" depart="318" departLane = "0" />
	<vehicle id="R_108" type="car8" route="route4_3" depart="318" departLane = "0" />
	<vehicle id="R_109" type="car9" route="route2_1" depart="321" departLane = "0" />
	<vehicle id="L_110" type="car8" route="route4_1" depart="322" departLane = "0" />
	<vehicle id="L_111" type="car8" route="route2_3" depart="323" departLane = "1" />
	<vehicle id="R_112" type="car6" route="route1_4" depart="326" departLane = "2" />
	<vehicle id="R_113" type="car5" route="route2_1" depart="327" departLane = "2" />
	<vehicle id="L_114" type="car5" route="route1_2" depart="328" departLane = "2" />
	<vehicle id="R_115" type="car6" route="route3_2" depart="328" departLane = "1" />
	<vehicle id="R_116" type="car5" route="route4_3" depart="331" departLane = "0" />
	<vehicle id="R_117" type="car8" route="route3_2" depart="333" departLane = "1" />
	<vehicle id="R_118" type="car9" route="route1_4" depart="339" departLane = "1" />
	<vehicle id="L_119" type="car8" route="route1_2" depart="342" departLane = "2" />
	<vehicle id="L_120" type="car7" route="route3_4" depart="342" departLane = "1" />
	<vehicle id="L_121" type="car9" route="route3_4" depart="343" departLane = "0" />
	<vehicle id="L_122" type="car9" route="route2_3" depart="348" departLane = "0" />
	<vehicle id="L_123" type="car6" route="route1_2" depart="351" departLane = "2" />
	<vehicle id="R_124" type="car7" route="route4_3" depart="351" departLane = "1" />
	<vehicle id="S_125" type="car5" route="route1_3" depart="354" departLane = "0" />
	<vehicle id="S_126" type="car5" route="route1_3" depart="358" departLane = "0" />
	<vehicle id="R_127" type="car7" route="route4_3" depart="358" departLane = "0" />
	<vehicle id="L_128" type="car6" route="route2_3" depart="359" departLane = "0" />
	<vehicle id="L_129" type="car8" route="route3_4" depart="362" departLane = "0" />
	<vehicle id="S_130" type="car9" route="route4_2" depart="363" departLane = "2" />
	<vehicle id="R_131" type="car6" route="route4_3" depart="364" departLane = "0" />
	<vehicle id="S_132" type="car5" route="route4_2" depart="368" departLane = "0" />
	<vehicle id="L_133" type="car9" route="route3_4" depart="372" departLane = "2" />
	<vehicle id="R_134" type="car5" route="route1_4" depart="375" departLane = "0" />
	<vehicle id="L_135" type="car6" route="route1_2" depart="377" departLane = "1" />
	<vehicle id="R_136" type="car7" route="route4_3" depart="379" departLane = "0" />
	<vehicle id="S_137" type="car8" route="route3_1" depart="383" departLane = "0" />
	<vehicle id="R_138" type="car8" route="route3_2" depart="385" departLane = "2" />
	<vehicle id="R_139" type="car5" route="route4_3" depart="385" departLane = "0" />
	<vehicle id="S_140" type="car8" route="route2_4" depart="390" departLane = "0" />
	<vehicle id="L_141" type="car8" route="route3_4" depart="391" departLane = "1" />
	<vehicle id="L_142" type="car5" route="route2_3" depart="392" departLane = "1" />
	<vehicle id="L_143" type="car7" route="route4_1" depart="393" departLane = "0" />
	<vehicle id="L_144" type="car6" route="route1_2" depart="394" departLane = "0" />
	<vehicle id="L_145" type="car8" route="route4_1" depart="394" departLane = "0" />
	<vehicle id="L_146" type="car8" route="route4_1" depart="396" departLane = "0" />
	<vehicle id="R_147" type="car6" route="route2_1" depart="397" departLane = "0" />
	<vehicle id="S_148" type="car9" route="route3_1" depart="399" departLane = "1" />
	<vehicle id="L_149" type="car7" route="route1_2" depart="405" departLane = "1" />
	<vehicle id="L_150" type="car7" route="route3_4" depart="406" departLane = "1" />
	<vehicle id="R_151" type="car9" route="route3_2" depart="407" departLane = "2" />
	<vehicle id="S_152" type="car6" route="route4_2" depart="408" departLane = "2" />
	<vehicle id="L_153" type="car9" route="route1_2" depart="411" departLane = "0" />
	<vehicle id="L_154" type="car7" route="route2_3" depart="411" departLane = "1" />
	<vehicle id="R_155" type="car5" route="route4_3" depart="416" departLane = "2" />
	<vehicle id="L_156" type="car5" route="route1_2" depart="419" departLane = "2" />
	<vehicle id="S_157" type="car9" route="route3_1" depart="420" departLane = "0" />
	<vehicle id="R_158" type="car6" route="route2_1" depart="423" departLane = "2" />
	<vehicle id="R_159" type="car9" route="route3_2" depart="424" departLane = "1" />
	<vehicle id="L_160" type="car6" route="route3_4" depart="429" departLane = "0" />
	<vehicle id="S_161" type="car7" route="route2_4" depart="430" departLane = "1" />
	<vehicle id="S_162" type="car6" route="route4_2" depart="443" departLane = "1" />
	<vehicle id="R_163" type="car5" route="route1_4" depart="445" departLane = "1" />
	<vehicle id="L_164" type="car7" route="route1_2" depart="453" departLane = "1" />
	<vehicle id="L_165" type="car7" route="route3_4" depart="454" departLane = "1" />
	<vehicle id="L_166" type="car5" route="route4_1" depart="455" departLane = "2" />
	<vehicle id="S_167" type="car5" route="route2_4" depart="461" departLane = "0" />
	<vehicle id="S_168" type="car9" route="route3_1" depart="462" departLane = "2" />
	<vehicle id="S_169" type="car8" route="route4_2" depart="462" departLane = "1" />
	<vehicle id="L_170" type="car8" route="route4_1" depart="464" departLane = "1" />
	<vehicle id="R_171" type="car6" route="route1_4" depart="467" departLane = "0" />
	<vehicle id="S_172" type="car8" route="route3_1" depart="467" departLane = "0" />
	<vehicle id="S_173" type="car8" route="route4_2" depart="468" departLane = "1" />
	<vehicle id="S_174" type="car9" route="route2_4" depart="471" departLane = "1" />
	<vehicle id="R_175" type="car9" route="route4_3" depart="471" departLane = "0" />
	<vehicle id="R_176" type="car9" route="route3_2" depart="472" departLane = "1" />
	<vehicle id="L_177" type="car6" route="route2_3" depart="474" departLane = "1" />
	<vehicle id="L_178" type="car9" route="route3_4" depart="480" departLane = "0" />
	<vehicle id="S_179" type="car5" route="route4_2" depart="485" departLane = "1" />
	<vehicle id="S_180" type="car5" route="route1_3" depart="490" departLane = "0" />
	<vehicle id="L_181" type="car8" route="route4_1" depart="491" departLane = "1" />
	<vehicle id="R_182" type="car6" route="route1_4" depart="494" departLane = "1" />
	<vehicle id="L_183" type="car9" route="route3_4" depart="495" departLane = "1" />
	<vehicle id="L_184" type="car8" route="route1_2" depart="501" departLane = "0" />
	<vehicle id="R_185" type="car7" route="route4_3" depart="502" departLane = "2" />
	<vehicle id="L_186" type="car7" route="route1_2" depart="505" departLane = "0" />
	<vehicle id="S_187" type="car9" route="route2_4" depart="512" departLane = "1" />
	<vehicle id="S_188" type="car5" route="route2_4" depart="514" departLane = "1" />
	<vehicle id="R_189" type="car7" route="route4_3" depart="515" departLane = "2" />
	<vehicle id="L_190" type="car9" route="route1_2" depart="516" departLane = "2" />
	<vehicle id="L_191" type="car6" route="route2_3" depart="516" departLane = "1" />
	<vehicle id="R_192" type="car5" route="route3_2" depart="516" departLane = "0" />
	<vehicle id="R_193" type="car9" route="route3_2" depart="521" departLane = "1" />
	<vehicle id="R_194" type="car8" route="route2_1" depart="525" departLane = "0" />
	<vehicle id="R_195" type="car6" route="route2_1" depart="527" departLane = "0" />
	<vehicle id="L_196" type="car7" route="route2_3" depart="528" departLane = "2" />
	<vehicle id="L_197" type="car8" route="route4_1" depart="530" departLane = "0" />
	<vehicle id="S_198" type="car7" route="route2_4" depart="531" departLane = "0" />
	<vehicle id="R_199" type="car5" route="route4_3" depart="533" departLane = "2" />
	<vehicle id="R_200" type="car5" route="route1_4" depart="535" departLane = "0" />
	<vehicle id="S_201" type="car5" route="route4_2" depart="535" departLane = "1" />
	<vehicle id="R_202" type="car6" route="route1_4" depart="536" departLane = "0" />
	<vehicle id="S_203" type="car6" route="route4_2" depart="538" departLane = "0" />
	<vehicle id="S_204" type="car5" route="route4_2" depart="540" departLane = "2" />
	<vehicle id="S_205" type="car8" route="route4_2" depart="541" departLane = "0" />
	<vehicle id="S_206" type="car5" route="route3_1" depart="542" departLane = "1" />
	<vehicle id="S_207" type="car5" route="route3_1" depart="543" departLane = "1" />
	<vehicle id="R_208" type="car9" route="route2_1" depart="544" departLane = "2" />
	<vehicle id="R_209" type="car7" route="route3_2" depart="544" departLane = "1" />
	<vehicle id="S_210" type="car7" route="route4_2" depart="546" departLane = "1" />
	<vehicle id="R_211" type="car7" route="route1_4" depart="551" departLane = "1" />
	<vehicle id="L_212" type="car9" route="route2_3" depart="551" departLane = "2" />
	<vehicle id="L_213" type="car8" route="route4_1" depart="556" departLane = "0" />
	<vehicle id="L_214" type="car5" route="route4_1" depart="560" departLane = "0" />
	<vehicle id="S_215" type="car6" route="route1_3" depart="562" departLane = "2" />
	<vehicle id="L_216" type="car6" route="route2_3" depart="563" departLane = "1" />
	<vehicle id="R_217" type="car8" route="route3_2" depart="564" departLane = "1" />
	<vehicle id="R_218" type="car8" route="route3_2" depart="568" departLane = "2" />
	<vehicle id="L_219" type="car6" route="route4_1" depart="573" departLane = "1" />
	<vehicle id="L_220" type="car5" route="route2_3" depart="575" departLane = "2" />
	<vehicle id="L_221" type="car8" route="route2_3" depart="576" departLane = "1" />
	<vehicle id="L_222" type="car7" route="route4_1" depart="576" departLane = "0" />
	<vehicle id="R_223" type="car7" route="route1_4" depart="579" departLane = "2" />
	<vehicle id="S_224" type="car9" route="route1_3" depart="581" departLane = "2" />
	<vehicle id="R_225" type="car9" route="route2_1" depart="581" departLane = "1" />
	<vehicle id="S_226" type="car6" route="route2_4" depart="586" departLane = "0" />
	<vehicle id="R_227" type="car8" route="route3_2" depart="588" departLane = "1" />
	<vehicle id="R_228" type="car6" route="route4_3" depart="589" departLane = "0" />
	<vehicle id="R_229" type="car8" route="route3_2" depart="593" departLane = "2" />
	<vehicle id="S_230" type="car7" route="route1_3" depart="597" departLane = "2" />
	<vehicle id="S_231" type="car8" route="route4_2" depart="598" departLane = "2" />
</routes>
