<routes>

	<vType id="car5" accel="100.0" decel="100.0" sigma="0.0" length="5" minGap="5.000000" maxSpeed="11.180000" tau="0.100000" carFollowModel="CACC" color="255,255,255"/>
	<vType id="car6" accel="100.0" decel="100.0" sigma="0.0" length="6" minGap="5.000000" maxSpeed="11.180000" tau="0.100000" carFollowModel="CACC" color="255,255,255"/>
	<vType id="car7" accel="100.0" decel="100.0" sigma="0.0" length="7" minGap="5.000000" maxSpeed="11.180000" tau="0.100000" carFollowModel="CACC" color="255,255,255"/>
	<vType id="car8" accel="100.0" decel="100.0" sigma="0.0" length="8" minGap="5.000000" maxSpeed="11.180000" tau="0.100000" carFollowModel="CACC" color="255,255,255"/>
	<vType id="car9" accel="100.0" decel="100.0" sigma="0.0" length="9" minGap="5.000000" maxSpeed="11.180000" tau="0.100000" carFollowModel="CACC" color="255,255,255"/>

	<route id="0" edges=" 001_001_1"/>
	<route id="2" edges=" 001_002_2"/>
	<route id="5" edges=" 002_001_3"/>
	<route id="7" edges=" 001_001_4"/>
	<route id="1" edges=" 001_002_1"/>
	<route id="3" edges=" 002_002_2"/>
	<route id="4" edges=" 002_002_3"/>
	<route id="6" edges=" 002_001_4"/>

	<vehicle id="car_0" type="car8" route="7" depart="4" departLane = "1" departSpeed="11.180000"/>
	<vehicle id="car_1" type="car7" route="4" depart="4" departLane = "2" departSpeed="11.180000"/>
	<vehicle id="car_2" type="car6" route="0" depart="6" departLane = "1" departSpeed="11.180000"/>
	<vehicle id="car_3" type="car8" route="3" depart="8" departLane = "2" departSpeed="11.180000"/>
	<vehicle id="car_4" type="car8" route="2" depart="11" departLane = "1" departSpeed="11.180000"/>
	<vehicle id="car_5" type="car7" route="4" depart="12" departLane = "2" departSpeed="11.180000"/>
	<vehicle id="car_6" type="car8" route="2" depart="13" departLane = "1" departSpeed="11.180000"/>
	<vehicle id="car_7" type="car5" route="4" depart="13" departLane = "2" departSpeed="11.180000"/>
	<vehicle id="car_8" type="car7" route="1" depart="14" departLane = "0" departSpeed="11.180000"/>
	<vehicle id="car_9" type="car5" route="7" depart="15" departLane = "2" departSpeed="11.180000"/>
	<vehicle id="car_10" type="car8" route="1" depart="16" departLane = "2" departSpeed="11.180000"/>
	<vehicle id="car_11" type="car8" route="7" depart="18" departLane = "1" departSpeed="11.180000"/>
	<vehicle id="car_12" type="car6" route="1" depart="18" departLane = "0" departSpeed="11.180000"/>
	<vehicle id="car_13" type="car5" route="0" depart="20" departLane = "1" departSpeed="11.180000"/>
	<vehicle id="car_14" type="car7" route="7" depart="21" departLane = "0" departSpeed="11.180000"/>
	<vehicle id="car_15" type="car8" route="7" depart="23" departLane = "2" departSpeed="11.180000"/>
	<vehicle id="car_16" type="car9" route="2" depart="24" departLane = "1" departSpeed="11.180000"/>
	<vehicle id="car_17" type="car5" route="5" depart="24" departLane = "1" departSpeed="11.180000"/>
	<vehicle id="car_18" type="car6" route="2" depart="25" departLane = "1" departSpeed="11.180000"/>
	<vehicle id="car_19" type="car5" route="5" depart="26" departLane = "2" departSpeed="11.180000"/>
	<vehicle id="car_20" type="car8" route="6" depart="26" departLane = "2" departSpeed="11.180000"/>
	<vehicle id="car_21" type="car5" route="0" depart="28" departLane = "1" departSpeed="11.180000"/>
	<vehicle id="car_22" type="car5" route="3" depart="28" departLane = "2" departSpeed="11.180000"/>
	<vehicle id="car_23" type="car5" route="1" depart="29" departLane = "1" departSpeed="11.180000"/>
	<vehicle id="car_24" type="car7" route="3" depart="29" departLane = "0" departSpeed="11.180000"/>
	<vehicle id="car_25" type="car9" route="6" depart="29" departLane = "1" departSpeed="11.180000"/>
	<vehicle id="car_26" type="car5" route="4" depart="31" departLane = "2" departSpeed="11.180000"/>
	<vehicle id="car_27" type="car5" route="6" depart="31" departLane = "1" departSpeed="11.180000"/>
	<vehicle id="car_28" type="car9" route="1" depart="33" departLane = "2" departSpeed="11.180000"/>
	<vehicle id="car_29" type="car9" route="7" depart="34" departLane = "0" departSpeed="11.180000"/>
	<vehicle id="car_30" type="car5" route="1" depart="37" departLane = "0" departSpeed="11.180000"/>
	<vehicle id="car_31" type="car5" route="5" depart="38" departLane = "2" departSpeed="11.180000"/>
	<vehicle id="car_32" type="car6" route="7" depart="38" departLane = "0" departSpeed="11.180000"/>
	<vehicle id="car_33" type="car9" route="1" depart="38" departLane = "0" departSpeed="11.180000"/>
	<vehicle id="car_34" type="car5" route="4" depart="41" departLane = "1" departSpeed="11.180000"/>
	<vehicle id="car_35" type="car9" route="0" depart="42" departLane = "2" departSpeed="11.180000"/>
	<vehicle id="car_36" type="car8" route="1" depart="42" departLane = "0" departSpeed="11.180000"/>
	<vehicle id="car_37" type="car5" route="6" depart="42" departLane = "1" departSpeed="11.180000"/>
	<vehicle id="car_38" type="car7" route="2" depart="44" departLane = "0" departSpeed="11.180000"/>
	<vehicle id="car_39" type="car8" route="5" depart="44" departLane = "1" departSpeed="11.180000"/>
	<vehicle id="car_40" type="car5" route="2" depart="48" departLane = "2" departSpeed="11.180000"/>
	<vehicle id="car_41" type="car9" route="0" depart="49" departLane = "2" departSpeed="11.180000"/>
	<vehicle id="car_42" type="car8" route="7" depart="50" departLane = "2" departSpeed="11.180000"/>
	<vehicle id="car_43" type="car7" route="1" depart="50" departLane = "2" departSpeed="11.180000"/>
	<vehicle id="car_44" type="car9" route="3" depart="50" departLane = "2" departSpeed="11.180000"/>
	<vehicle id="car_45" type="car5" route="6" depart="50" departLane = "1" departSpeed="11.180000"/>
	<vehicle id="car_46" type="car6" route="0" depart="51" departLane = "0" departSpeed="11.180000"/>
	<vehicle id="car_47" type="car9" route="7" depart="51" departLane = "0" departSpeed="11.180000"/>
	<vehicle id="car_48" type="car6" route="0" depart="52" departLane = "0" departSpeed="11.180000"/>
	<vehicle id="car_49" type="car5" route="1" depart="55" departLane = "0" departSpeed="11.180000"/>
	<vehicle id="car_50" type="car5" route="3" depart="55" departLane = "1" departSpeed="11.180000"/>
	<vehicle id="car_51" type="car7" route="7" depart="56" departLane = "1" departSpeed="11.180000"/>
	<vehicle id="car_52" type="car7" route="3" depart="56" departLane = "1" departSpeed="11.180000"/>
	<vehicle id="car_53" type="car8" route="3" depart="59" departLane = "1" departSpeed="11.180000"/>
	<vehicle id="car_54" type="car6" route="4" depart="59" departLane = "2" departSpeed="11.180000"/>
	<vehicle id="car_55" type="car6" route="1" depart="61" departLane = "1" departSpeed="11.180000"/>
	<vehicle id="car_56" type="car8" route="3" depart="62" departLane = "0" departSpeed="11.180000"/>
	<vehicle id="car_57" type="car6" route="4" depart="66" departLane = "2" departSpeed="11.180000"/>
	<vehicle id="car_58" type="car8" route="6" depart="66" departLane = "0" departSpeed="11.180000"/>
	<vehicle id="car_59" type="car7" route="5" depart="67" departLane = "0" departSpeed="11.180000"/>
	<vehicle id="car_60" type="car5" route="6" depart="67" departLane = "1" departSpeed="11.180000"/>
	<vehicle id="car_61" type="car6" route="1" depart="71" departLane = "0" departSpeed="11.180000"/>
	<vehicle id="car_62" type="car5" route="3" depart="71" departLane = "0" departSpeed="11.180000"/>
	<vehicle id="car_63" type="car5" route="7" depart="74" departLane = "0" departSpeed="11.180000"/>
	<vehicle id="car_64" type="car5" route="7" depart="76" departLane = "1" departSpeed="11.180000"/>
	<vehicle id="car_65" type="car9" route="6" depart="77" departLane = "0" departSpeed="11.180000"/>
	<vehicle id="car_66" type="car9" route="5" depart="78" departLane = "2" departSpeed="11.180000"/>
	<vehicle id="car_67" type="car5" route="3" depart="78" departLane = "2" departSpeed="11.180000"/>
	<vehicle id="car_68" type="car7" route="2" depart="79" departLane = "2" departSpeed="11.180000"/>
	<vehicle id="car_69" type="car5" route="7" depart="79" departLane = "1" departSpeed="11.180000"/>
	<vehicle id="car_70" type="car8" route="3" depart="81" departLane = "0" departSpeed="11.180000"/>
	<vehicle id="car_71" type="car5" route="2" depart="85" departLane = "1" departSpeed="11.180000"/>
	<vehicle id="car_72" type="car8" route="1" depart="85" departLane = "2" departSpeed="11.180000"/>
	<vehicle id="car_73" type="car6" route="3" depart="87" departLane = "1" departSpeed="11.180000"/>
	<vehicle id="car_74" type="car5" route="5" depart="89" departLane = "2" departSpeed="11.180000"/>
	<vehicle id="car_75" type="car8" route="6" depart="90" departLane = "0" departSpeed="11.180000"/>
	<vehicle id="car_76" type="car6" route="0" depart="91" departLane = "1" departSpeed="11.180000"/>
	<vehicle id="car_77" type="car5" route="2" depart="91" departLane = "2" departSpeed="11.180000"/>
	<vehicle id="car_78" type="car9" route="5" depart="93" departLane = "1" departSpeed="11.180000"/>
	<vehicle id="car_79" type="car5" route="1" depart="93" departLane = "2" departSpeed="11.180000"/>
	<vehicle id="car_80" type="car9" route="1" depart="94" departLane = "0" departSpeed="11.180000"/>
	<vehicle id="car_81" type="car9" route="0" depart="95" departLane = "1" departSpeed="11.180000"/>
	<vehicle id="car_82" type="car9" route="0" depart="96" departLane = "0" departSpeed="11.180000"/>
	<vehicle id="car_83" type="car6" route="2" depart="96" departLane = "0" departSpeed="11.180000"/>
	<vehicle id="car_84" type="car8" route="3" depart="98" departLane = "0" departSpeed="11.180000"/>
	<vehicle id="car_85" type="car9" route="3" depart="101" departLane = "1" departSpeed="11.180000"/>
	<vehicle id="car_86" type="car5" route="3" depart="102" departLane = "0" departSpeed="11.180000"/>
	<vehicle id="car_87" type="car7" route="1" depart="108" departLane = "2" departSpeed="11.180000"/>
	<vehicle id="car_88" type="car7" route="6" depart="109" departLane = "2" departSpeed="11.180000"/>
	<vehicle id="car_89" type="car5" route="4" depart="111" departLane = "0" departSpeed="11.180000"/>
	<vehicle id="car_90" type="car7" route="4" depart="112" departLane = "2" departSpeed="11.180000"/>
	<vehicle id="car_91" type="car7" route="5" depart="113" departLane = "1" departSpeed="11.180000"/>
	<vehicle id="car_92" type="car7" route="7" depart="113" departLane = "1" departSpeed="11.180000"/>
	<vehicle id="car_93" type="car5" route="1" depart="113" departLane = "0" departSpeed="11.180000"/>
	<vehicle id="car_94" type="car9" route="4" depart="113" departLane = "2" departSpeed="11.180000"/>
	<vehicle id="car_95" type="car5" route="2" depart="115" departLane = "0" departSpeed="11.180000"/>
	<vehicle id="car_96" type="car9" route="3" depart="115" departLane = "0" departSpeed="11.180000"/>
	<vehicle id="car_97" type="car7" route="1" depart="116" departLane = "2" departSpeed="11.180000"/>
	<vehicle id="car_98" type="car7" route="6" depart="117" departLane = "1" departSpeed="11.180000"/>
	<vehicle id="car_99" type="car8" route="0" depart="118" departLane = "2" departSpeed="11.180000"/>
	<vehicle id="car_100" type="car8" route="2" depart="118" departLane = "1" departSpeed="11.180000"/>
	<vehicle id="car_101" type="car7" route="3" depart="119" departLane = "1" departSpeed="11.180000"/>
	<vehicle id="car_102" type="car8" route="3" depart="120" departLane = "0" departSpeed="11.180000"/>
	<vehicle id="car_103" type="car6" route="2" depart="121" departLane = "1" departSpeed="11.180000"/>
	<vehicle id="car_104" type="car8" route="5" depart="121" departLane = "2" departSpeed="11.180000"/>
	<vehicle id="car_105" type="car5" route="3" depart="121" departLane = "1" departSpeed="11.180000"/>
	<vehicle id="car_106" type="car9" route="1" depart="122" departLane = "0" departSpeed="11.180000"/>
	<vehicle id="car_107" type="car7" route="1" depart="123" departLane = "1" departSpeed="11.180000"/>
	<vehicle id="car_108" type="car5" route="6" depart="123" departLane = "2" departSpeed="11.180000"/>
	<vehicle id="car_109" type="car9" route="1" depart="124" departLane = "1" departSpeed="11.180000"/>
	<vehicle id="car_110" type="car9" route="6" depart="124" departLane = "1" departSpeed="11.180000"/>
	<vehicle id="car_111" type="car6" route="2" depart="125" departLane = "0" departSpeed="11.180000"/>
	<vehicle id="car_112" type="car6" route="4" depart="126" departLane = "0" departSpeed="11.180000"/>
	<vehicle id="car_113" type="car9" route="6" depart="127" departLane = "0" departSpeed="11.180000"/>
	<vehicle id="car_114" type="car9" route="7" depart="128" departLane = "1" departSpeed="11.180000"/>
	<vehicle id="car_115" type="car8" route="1" depart="128" departLane = "0" departSpeed="11.180000"/>
	<vehicle id="car_116" type="car7" route="2" depart="129" departLane = "2" departSpeed="11.180000"/>
	<vehicle id="car_117" type="car7" route="6" depart="129" departLane = "1" departSpeed="11.180000"/>
	<vehicle id="car_118" type="car8" route="3" depart="131" departLane = "1" departSpeed="11.180000"/>
	<vehicle id="car_119" type="car6" route="6" depart="131" departLane = "2" departSpeed="11.180000"/>
	<vehicle id="car_120" type="car8" route="7" depart="132" departLane = "0" departSpeed="11.180000"/>
	<vehicle id="car_121" type="car8" route="0" depart="137" departLane = "2" departSpeed="11.180000"/>
	<vehicle id="car_122" type="car7" route="4" depart="141" departLane = "2" departSpeed="11.180000"/>
	<vehicle id="car_123" type="car9" route="7" depart="143" departLane = "2" departSpeed="11.180000"/>
	<vehicle id="car_124" type="car9" route="4" depart="144" departLane = "2" departSpeed="11.180000"/>
	<vehicle id="car_125" type="car5" route="0" depart="146" departLane = "1" departSpeed="11.180000"/>
	<vehicle id="car_126" type="car7" route="3" depart="146" departLane = "1" departSpeed="11.180000"/>
	<vehicle id="car_127" type="car5" route="1" depart="148" departLane = "1" departSpeed="11.180000"/>
	<vehicle id="car_128" type="car9" route="2" depart="150" departLane = "1" departSpeed="11.180000"/>
	<vehicle id="car_129" type="car5" route="2" depart="151" departLane = "0" departSpeed="11.180000"/>
	<vehicle id="car_130" type="car7" route="2" depart="152" departLane = "0" departSpeed="11.180000"/>
	<vehicle id="car_131" type="car6" route="6" depart="157" departLane = "2" departSpeed="11.180000"/>
	<vehicle id="car_132" type="car5" route="1" depart="158" departLane = "0" departSpeed="11.180000"/>
	<vehicle id="car_133" type="car6" route="5" depart="159" departLane = "0" departSpeed="11.180000"/>
	<vehicle id="car_134" type="car9" route="2" depart="160" departLane = "2" departSpeed="11.180000"/>
	<vehicle id="car_135" type="car5" route="5" depart="160" departLane = "0" departSpeed="11.180000"/>
	<vehicle id="car_136" type="car9" route="2" depart="162" departLane = "2" departSpeed="11.180000"/>
	<vehicle id="car_137" type="car8" route="1" depart="165" departLane = "0" departSpeed="11.180000"/>
	<vehicle id="car_138" type="car6" route="5" depart="167" departLane = "1" departSpeed="11.180000"/>
	<vehicle id="car_139" type="car9" route="4" depart="167" departLane = "2" departSpeed="11.180000"/>
	<vehicle id="car_140" type="car5" route="1" depart="171" departLane = "1" departSpeed="11.180000"/>
	<vehicle id="car_141" type="car6" route="2" depart="175" departLane = "2" departSpeed="11.180000"/>
	<vehicle id="car_142" type="car9" route="4" depart="175" departLane = "0" departSpeed="11.180000"/>
	<vehicle id="car_143" type="car9" route="7" depart="176" departLane = "1" departSpeed="11.180000"/>
	<vehicle id="car_144" type="car7" route="1" depart="176" departLane = "2" departSpeed="11.180000"/>
	<vehicle id="car_145" type="car9" route="5" depart="177" departLane = "1" departSpeed="11.180000"/>
	<vehicle id="car_146" type="car5" route="4" depart="178" departLane = "1" departSpeed="11.180000"/>
	<vehicle id="car_147" type="car9" route="0" depart="179" departLane = "1" departSpeed="11.180000"/>
	<vehicle id="car_148" type="car7" route="7" depart="179" departLane = "1" departSpeed="11.180000"/>
	<vehicle id="car_149" type="car6" route="2" depart="180" departLane = "1" departSpeed="11.180000"/>
	<vehicle id="car_150" type="car9" route="1" depart="181" departLane = "0" departSpeed="11.180000"/>
	<vehicle id="car_151" type="car7" route="5" depart="182" departLane = "1" departSpeed="11.180000"/>
	<vehicle id="car_152" type="car9" route="3" depart="185" departLane = "0" departSpeed="11.180000"/>
	<vehicle id="car_153" type="car8" route="0" depart="186" departLane = "0" departSpeed="11.180000"/>
	<vehicle id="car_154" type="car9" route="5" depart="187" departLane = "2" departSpeed="11.180000"/>
	<vehicle id="car_155" type="car9" route="6" depart="187" departLane = "1" departSpeed="11.180000"/>
	<vehicle id="car_156" type="car8" route="4" depart="188" departLane = "2" departSpeed="11.180000"/>
	<vehicle id="car_157" type="car8" route="3" depart="191" departLane = "1" departSpeed="11.180000"/>
	<vehicle id="car_158" type="car8" route="1" depart="192" departLane = "2" departSpeed="11.180000"/>
	<vehicle id="car_159" type="car6" route="1" depart="193" departLane = "2" departSpeed="11.180000"/>
	<vehicle id="car_160" type="car5" route="4" depart="195" departLane = "1" departSpeed="11.180000"/>
	<vehicle id="car_161" type="car5" route="7" depart="196" departLane = "2" departSpeed="11.180000"/>
	<vehicle id="car_162" type="car9" route="1" depart="196" departLane = "2" departSpeed="11.180000"/>
	<vehicle id="car_163" type="car9" route="0" depart="198" departLane = "1" departSpeed="11.180000"/>
	<vehicle id="car_164" type="car7" route="2" depart="198" departLane = "1" departSpeed="11.180000"/>
	<vehicle id="car_165" type="car5" route="6" depart="198" departLane = "2" departSpeed="11.180000"/>
	<vehicle id="car_166" type="car8" route="0" depart="204" departLane = "2" departSpeed="11.180000"/>
	<vehicle id="car_167" type="car6" route="5" depart="204" departLane = "0" departSpeed="11.180000"/>
	<vehicle id="car_168" type="car9" route="3" depart="204" departLane = "2" departSpeed="11.180000"/>
	<vehicle id="car_169" type="car9" route="7" depart="205" departLane = "0" departSpeed="11.180000"/>
	<vehicle id="car_170" type="car7" route="2" depart="207" departLane = "1" departSpeed="11.180000"/>
	<vehicle id="car_171" type="car9" route="4" depart="208" departLane = "0" departSpeed="11.180000"/>
	<vehicle id="car_172" type="car9" route="2" depart="211" departLane = "0" departSpeed="11.180000"/>
	<vehicle id="car_173" type="car5" route="5" depart="214" departLane = "0" departSpeed="11.180000"/>
	<vehicle id="car_174" type="car6" route="7" depart="215" departLane = "1" departSpeed="11.180000"/>
	<vehicle id="car_175" type="car7" route="3" depart="215" departLane = "2" departSpeed="11.180000"/>
	<vehicle id="car_176" type="car7" route="4" depart="215" departLane = "1" departSpeed="11.180000"/>
	<vehicle id="car_177" type="car9" route="3" depart="216" departLane = "2" departSpeed="11.180000"/>
	<vehicle id="car_178" type="car8" route="0" depart="218" departLane = "0" departSpeed="11.180000"/>
	<vehicle id="car_179" type="car5" route="5" depart="218" departLane = "0" departSpeed="11.180000"/>
	<vehicle id="car_180" type="car6" route="3" depart="219" departLane = "0" departSpeed="11.180000"/>
	<vehicle id="car_181" type="car6" route="2" depart="220" departLane = "1" departSpeed="11.180000"/>
	<vehicle id="car_182" type="car6" route="3" depart="220" departLane = "1" departSpeed="11.180000"/>
	<vehicle id="car_183" type="car5" route="2" depart="221" departLane = "1" departSpeed="11.180000"/>
	<vehicle id="car_184" type="car6" route="0" depart="223" departLane = "2" departSpeed="11.180000"/>
	<vehicle id="car_185" type="car5" route="1" depart="223" departLane = "1" departSpeed="11.180000"/>
	<vehicle id="car_186" type="car6" route="2" depart="224" departLane = "2" departSpeed="11.180000"/>
	<vehicle id="car_187" type="car8" route="6" depart="224" departLane = "0" departSpeed="11.180000"/>
	<vehicle id="car_188" type="car8" route="6" depart="225" departLane = "1" departSpeed="11.180000"/>
	<vehicle id="car_189" type="car7" route="1" depart="231" departLane = "0" departSpeed="11.180000"/>
	<vehicle id="car_190" type="car9" route="5" depart="232" departLane = "1" departSpeed="11.180000"/>
	<vehicle id="car_191" type="car7" route="3" depart="232" departLane = "2" departSpeed="11.180000"/>
	<vehicle id="car_192" type="car9" route="4" depart="233" departLane = "2" departSpeed="11.180000"/>
	<vehicle id="car_193" type="car9" route="5" depart="235" departLane = "2" departSpeed="11.180000"/>
	<vehicle id="car_194" type="car7" route="6" depart="235" departLane = "0" departSpeed="11.180000"/>
	<vehicle id="car_195" type="car7" route="7" depart="236" departLane = "1" departSpeed="11.180000"/>
	<vehicle id="car_196" type="car9" route="3" depart="238" departLane = "1" departSpeed="11.180000"/>
	<vehicle id="car_197" type="car7" route="2" depart="239" departLane = "1" departSpeed="11.180000"/>
	<vehicle id="car_198" type="car5" route="7" depart="240" departLane = "0" departSpeed="11.180000"/>
	<vehicle id="car_199" type="car5" route="3" depart="240" departLane = "1" departSpeed="11.180000"/>
	<vehicle id="car_200" type="car6" route="4" depart="240" departLane = "0" departSpeed="11.180000"/>
	<vehicle id="car_201" type="car6" route="3" depart="242" departLane = "2" departSpeed="11.180000"/>
	<vehicle id="car_202" type="car9" route="6" depart="242" departLane = "2" departSpeed="11.180000"/>
	<vehicle id="car_203" type="car7" route="6" depart="243" departLane = "0" departSpeed="11.180000"/>
	<vehicle id="car_204" type="car8" route="2" depart="245" departLane = "1" departSpeed="11.180000"/>
	<vehicle id="car_205" type="car7" route="4" depart="245" departLane = "0" departSpeed="11.180000"/>
	<vehicle id="car_206" type="car9" route="5" depart="247" departLane = "0" departSpeed="11.180000"/>
	<vehicle id="car_207" type="car6" route="4" depart="248" departLane = "2" departSpeed="11.180000"/>
	<vehicle id="car_208" type="car6" route="3" depart="249" departLane = "1" departSpeed="11.180000"/>
	<vehicle id="car_209" type="car5" route="4" depart="250" departLane = "1" departSpeed="11.180000"/>
	<vehicle id="car_210" type="car6" route="3" depart="251" departLane = "1" departSpeed="11.180000"/>
	<vehicle id="car_211" type="car7" route="1" depart="253" departLane = "0" departSpeed="11.180000"/>
	<vehicle id="car_212" type="car6" route="4" depart="255" departLane = "2" departSpeed="11.180000"/>
	<vehicle id="car_213" type="car9" route="2" depart="256" departLane = "2" departSpeed="11.180000"/>
	<vehicle id="car_214" type="car5" route="2" depart="258" departLane = "1" departSpeed="11.180000"/>
	<vehicle id="car_215" type="car6" route="2" depart="259" departLane = "0" departSpeed="11.180000"/>
	<vehicle id="car_216" type="car6" route="2" depart="260" departLane = "1" departSpeed="11.180000"/>
	<vehicle id="car_217" type="car6" route="7" depart="260" departLane = "0" departSpeed="11.180000"/>
	<vehicle id="car_218" type="car8" route="6" depart="263" departLane = "0" departSpeed="11.180000"/>
	<vehicle id="car_219" type="car5" route="4" depart="264" departLane = "1" departSpeed="11.180000"/>
	<vehicle id="car_220" type="car6" route="6" depart="265" departLane = "2" departSpeed="11.180000"/>
	<vehicle id="car_221" type="car6" route="5" depart="266" departLane = "1" departSpeed="11.180000"/>
	<vehicle id="car_222" type="car9" route="1" depart="268" departLane = "1" departSpeed="11.180000"/>
	<vehicle id="car_223" type="car5" route="2" depart="269" departLane = "2" departSpeed="11.180000"/>
	<vehicle id="car_224" type="car5" route="6" depart="269" departLane = "0" departSpeed="11.180000"/>
	<vehicle id="car_225" type="car5" route="4" depart="273" departLane = "0" departSpeed="11.180000"/>
	<vehicle id="car_226" type="car7" route="2" depart="277" departLane = "2" departSpeed="11.180000"/>
	<vehicle id="car_227" type="car5" route="1" depart="277" departLane = "2" departSpeed="11.180000"/>
	<vehicle id="car_228" type="car7" route="7" depart="278" departLane = "1" departSpeed="11.180000"/>
	<vehicle id="car_229" type="car7" route="4" depart="278" departLane = "0" departSpeed="11.180000"/>
	<vehicle id="car_230" type="car5" route="4" depart="279" departLane = "1" departSpeed="11.180000"/>
	<vehicle id="car_231" type="car8" route="2" depart="280" departLane = "2" departSpeed="11.180000"/>
	<vehicle id="car_232" type="car5" route="6" depart="280" departLane = "1" departSpeed="11.180000"/>
	<vehicle id="car_233" type="car7" route="7" depart="284" departLane = "1" departSpeed="11.180000"/>
	<vehicle id="car_234" type="car6" route="1" depart="284" departLane = "0" departSpeed="11.180000"/>
	<vehicle id="car_235" type="car5" route="5" depart="285" departLane = "2" departSpeed="11.180000"/>
	<vehicle id="car_236" type="car8" route="7" depart="285" departLane = "0" departSpeed="11.180000"/>
	<vehicle id="car_237" type="car7" route="1" depart="286" departLane = "2" departSpeed="11.180000"/>
	<vehicle id="car_238" type="car9" route="7" depart="287" departLane = "0" departSpeed="11.180000"/>
	<vehicle id="car_239" type="car8" route="3" depart="287" departLane = "2" departSpeed="11.180000"/>
	<vehicle id="car_240" type="car9" route="3" depart="288" departLane = "1" departSpeed="11.180000"/>
	<vehicle id="car_241" type="car5" route="6" depart="288" departLane = "0" departSpeed="11.180000"/>
	<vehicle id="car_242" type="car5" route="7" depart="289" departLane = "2" departSpeed="11.180000"/>
	<vehicle id="car_243" type="car5" route="4" depart="289" departLane = "2" departSpeed="11.180000"/>
	<vehicle id="car_244" type="car7" route="3" depart="291" departLane = "0" departSpeed="11.180000"/>
	<vehicle id="car_245" type="car5" route="2" depart="294" departLane = "2" departSpeed="11.180000"/>
	<vehicle id="car_246" type="car8" route="2" depart="296" departLane = "0" departSpeed="11.180000"/>
	<vehicle id="car_247" type="car6" route="3" depart="297" departLane = "1" departSpeed="11.180000"/>
	<vehicle id="car_248" type="car9" route="7" depart="298" departLane = "2" departSpeed="11.180000"/>
	<vehicle id="car_249" type="car8" route="4" depart="298" departLane = "0" departSpeed="11.180000"/>
	<vehicle id="car_250" type="car8" route="6" depart="300" departLane = "0" departSpeed="11.180000"/>
	<vehicle id="car_251" type="car6" route="0" depart="303" departLane = "1" departSpeed="11.180000"/>
	<vehicle id="car_252" type="car9" route="5" depart="304" departLane = "0" departSpeed="11.180000"/>
	<vehicle id="car_253" type="car9" route="3" depart="305" departLane = "2" departSpeed="11.180000"/>
	<vehicle id="car_254" type="car9" route="4" depart="305" departLane = "2" departSpeed="11.180000"/>
	<vehicle id="car_255" type="car5" route="6" depart="305" departLane = "0" departSpeed="11.180000"/>
	<vehicle id="car_256" type="car9" route="7" depart="307" departLane = "1" departSpeed="11.180000"/>
	<vehicle id="car_257" type="car8" route="7" depart="308" departLane = "2" departSpeed="11.180000"/>
	<vehicle id="car_258" type="car7" route="1" depart="308" departLane = "2" departSpeed="11.180000"/>
	<vehicle id="car_259" type="car6" route="4" depart="309" departLane = "0" departSpeed="11.180000"/>
	<vehicle id="car_260" type="car5" route="6" depart="309" departLane = "2" departSpeed="11.180000"/>
	<vehicle id="car_261" type="car9" route="7" depart="312" departLane = "1" departSpeed="11.180000"/>
	<vehicle id="car_262" type="car7" route="6" depart="312" departLane = "1" departSpeed="11.180000"/>
	<vehicle id="car_263" type="car8" route="0" depart="313" departLane = "1" departSpeed="11.180000"/>
	<vehicle id="car_264" type="car6" route="5" depart="313" departLane = "0" departSpeed="11.180000"/>
	<vehicle id="car_265" type="car5" route="7" depart="316" departLane = "0" departSpeed="11.180000"/>
	<vehicle id="car_266" type="car7" route="1" depart="317" departLane = "1" departSpeed="11.180000"/>
	<vehicle id="car_267" type="car6" route="4" depart="317" departLane = "0" departSpeed="11.180000"/>
	<vehicle id="car_268" type="car7" route="7" depart="320" departLane = "1" departSpeed="11.180000"/>
	<vehicle id="car_269" type="car5" route="3" depart="320" departLane = "1" departSpeed="11.180000"/>
	<vehicle id="car_270" type="car5" route="0" depart="321" departLane = "1" departSpeed="11.180000"/>
	<vehicle id="car_271" type="car7" route="6" depart="323" departLane = "2" departSpeed="11.180000"/>
	<vehicle id="car_272" type="car6" route="5" depart="324" departLane = "1" departSpeed="11.180000"/>
	<vehicle id="car_273" type="car9" route="1" depart="324" departLane = "1" departSpeed="11.180000"/>
	<vehicle id="car_274" type="car8" route="3" depart="324" departLane = "0" departSpeed="11.180000"/>
	<vehicle id="car_275" type="car7" route="5" depart="327" departLane = "1" departSpeed="11.180000"/>
	<vehicle id="car_276" type="car8" route="4" depart="328" departLane = "2" departSpeed="11.180000"/>
	<vehicle id="car_277" type="car7" route="6" depart="328" departLane = "0" departSpeed="11.180000"/>
	<vehicle id="car_278" type="car9" route="5" depart="329" departLane = "2" departSpeed="11.180000"/>
	<vehicle id="car_279" type="car8" route="0" depart="331" departLane = "1" departSpeed="11.180000"/>
	<vehicle id="car_280" type="car8" route="3" depart="331" departLane = "2" departSpeed="11.180000"/>
	<vehicle id="car_281" type="car5" route="5" depart="337" departLane = "2" departSpeed="11.180000"/>
	<vehicle id="car_282" type="car8" route="7" depart="337" departLane = "0" departSpeed="11.180000"/>
	<vehicle id="car_283" type="car7" route="2" depart="338" departLane = "1" departSpeed="11.180000"/>
	<vehicle id="car_284" type="car9" route="5" depart="339" departLane = "2" departSpeed="11.180000"/>
	<vehicle id="car_285" type="car6" route="3" depart="340" departLane = "2" departSpeed="11.180000"/>
	<vehicle id="car_286" type="car6" route="4" depart="341" departLane = "2" departSpeed="11.180000"/>