<routes>

	<vType id="car5" accel="100.0" decel="100.0" sigma="0.0" length="5" minGap="3.000000" maxSpeed="11.180000" tau="0.100000" carFollowModel="CACC" color="255,255,255"/>
	<vType id="car6" accel="100.0" decel="100.0" sigma="0.0" length="6" minGap="3.000000" maxSpeed="11.180000" tau="0.100000" carFollowModel="CACC" color="255,255,255"/>
	<vType id="car7" accel="100.0" decel="100.0" sigma="0.0" length="7" minGap="3.000000" maxSpeed="11.180000" tau="0.100000" carFollowModel="CACC" color="255,255,255"/>
	<vType id="car8" accel="100.0" decel="100.0" sigma="0.0" length="8" minGap="3.000000" maxSpeed="11.180000" tau="0.100000" carFollowModel="CACC" color="255,255,255"/>
	<vType id="car9" accel="100.0" decel="100.0" sigma="0.0" length="9" minGap="3.000000" maxSpeed="11.180000" tau="0.100000" carFollowModel="CACC" color="255,255,255"/>

	<route id="route0_1_2" edges=" 001_001_1"/>
	<route id="route0_1_3" edges=" 001_001_1"/>
	<route id="route0_1_4" edges=" 001_001_1"/>
	<route id="route0_2_1" edges=" 001_001_2"/>
	<route id="route0_2_3" edges=" 001_001_2"/>
	<route id="route0_2_4" edges=" 001_001_2"/>
	<route id="route0_3_1" edges=" 001_001_3"/>
	<route id="route0_3_2" edges=" 001_001_3"/>
	<route id="route0_3_4" edges=" 001_001_3"/>
	<route id="route0_4_1" edges=" 001_001_4"/>
	<route id="route0_4_2" edges=" 001_001_4"/>
	<route id="route0_4_3" edges=" 001_001_4"/>
	<route id="route1_1_2" edges=" 002_001_1"/>
	<route id="route1_1_3" edges=" 002_001_1"/>
	<route id="route1_1_4" edges=" 002_001_1"/>
	<route id="route1_2_1" edges=" 002_001_2"/>
	<route id="route1_2_3" edges=" 002_001_2"/>
	<route id="route1_2_4" edges=" 002_001_2"/>
	<route id="route1_3_1" edges=" 002_001_3"/>
	<route id="route1_3_2" edges=" 002_001_3"/>
	<route id="route1_3_4" edges=" 002_001_3"/>
	<route id="route1_4_1" edges=" 002_001_4"/>
	<route id="route1_4_2" edges=" 002_001_4"/>
	<route id="route1_4_3" edges=" 002_001_4"/>

	<vehicle id="LX_0" type="car6" route="route0_1_2" depart="0" departLane = "2" departSpeed="11.180000"/>
	<vehicle id="SX_1" type="car9" route="route0_2_4" depart="0" departLane = "1" departSpeed="11.180000"/>
	<vehicle id="SX_2" type="car7" route="route0_4_2" depart="0" departLane = "1" departSpeed="11.180000"/>
	<vehicle id="LX_3" type="car5" route="route1_2_3" depart="0" departLane = "2" departSpeed="11.180000"/>
	<vehicle id="LX_4" type="car8" route="route1_3_4" depart="0" departLane = "2" departSpeed="11.180000"/>
	<vehicle id="LS_5" type="car6" route="route1_4_1" depart="0" departLane = "2" departSpeed="11.180000"/>
	<vehicle id="LX_6" type="car7" route="route0_1_2" depart="1" departLane = "2" departSpeed="11.180000"/>
	<vehicle id="LS_7" type="car5" route="route0_2_3" depart="1" departLane = "2" departSpeed="11.180000"/>
	<vehicle id="LX_8" type="car5" route="route0_4_1" depart="1" departLane = "2" departSpeed="11.180000"/>
	<vehicle id="RR_9" type="car9" route="route1_2_1" depart="1" departLane = "0" departSpeed="11.180000"/>
	<vehicle id="LX_10" type="car8" route="route1_3_4" depart="1" departLane = "2" departSpeed="11.180000"/>
	<vehicle id="RX_11" type="car8" route="route1_4_3" depart="1" departLane = "0" departSpeed="11.180000"/>
	<vehicle id="SR_12" type="car6" route="route0_1_3" depart="2" departLane = "1" departSpeed="11.180000"/>
	<vehicle id="RX_13" type="car8" route="route0_2_1" depart="2" departLane = "0" departSpeed="11.180000"/>
	<vehicle id="SX_14" type="car5" route="route0_4_2" depart="2" departLane = "1" departSpeed="11.180000"/>
	<vehicle id="RS_15" type="car6" route="route1_2_1" depart="2" departLane = "0" departSpeed="11.180000"/>
	<vehicle id="RX_16" type="car9" route="route1_3_2" depart="2" departLane = "0" departSpeed="11.180000"/>
	<vehicle id="RX_17" type="car9" route="route1_4_3" depart="2" departLane = "0" departSpeed="11.180000"/>
	<vehicle id="SR_18" type="car5" route="route0_1_3" depart="3" departLane = "1" departSpeed="11.180000"/>
	<vehicle id="RX_19" type="car7" route="route0_2_1" depart="3" departLane = "0" departSpeed="11.180000"/>
	<vehicle id="RL_20" type="car7" route="route0_4_3" depart="3" departLane = "0" departSpeed="11.180000"/>
	<vehicle id="SR_21" type="car7" route="route1_3_1" depart="3" departLane = "1" departSpeed="11.180000"/>
	<vehicle id="SX_22" type="car7" route="route1_4_2" depart="3" departLane = "1" departSpeed="11.180000"/>
	<vehicle id="RX_23" type="car6" route="route0_1_4" depart="4" departLane = "0" departSpeed="11.180000"/>
	<vehicle id="RX_24" type="car5" route="route0_2_1" depart="4" departLane = "0" departSpeed="11.180000"/>
	<vehicle id="LX_25" type="car5" route="route0_4_1" depart="4" departLane = "2" departSpeed="11.180000"/>
	<vehicle id="LX_26" type="car7" route="route1_2_3" depart="4" departLane = "2" departSpeed="11.180000"/>
	<vehicle id="RX_27" type="car6" route="route1_4_3" depart="4" departLane = "0" departSpeed="11.180000"/>
	<vehicle id="RX_28" type="car5" route="route0_1_4" depart="5" departLane = "0" departSpeed="11.180000"/>
	<vehicle id="RX_29" type="car5" route="route0_2_1" depart="5" departLane = "0" departSpeed="11.180000"/>
	<vehicle id="SX_30" type="car9" route="route0_4_2" depart="5" departLane = "1" departSpeed="11.180000"/>
	<vehicle id="SX_31" type="car7" route="route1_2_4" depart="5" departLane = "1" departSpeed="11.180000"/>
	<vehicle id="SS_32" type="car5" route="route1_3_1" depart="5" departLane = "1" departSpeed="11.180000"/>
	<vehicle id="SX_33" type="car9" route="route1_4_2" depart="5" departLane = "1" departSpeed="11.180000"/>
	<vehicle id="SX_34" type="car8" route="route0_2_4" depart="6" departLane = "1" departSpeed="11.180000"/>
	<vehicle id="RL_35" type="car8" route="route1_2_1" depart="6" departLane = "0" departSpeed="11.180000"/>
	<vehicle id="RX_36" type="car6" route="route1_3_2" depart="6" departLane = "0" departSpeed="11.180000"/>
	<vehicle id="RX_37" type="car7" route="route1_4_3" depart="6" departLane = "0" departSpeed="11.180000"/>
	<vehicle id="RX_38" type="car5" route="route0_1_4" depart="7" departLane = "0" departSpeed="11.180000"/>
	<vehicle id="LS_39" type="car9" route="route0_2_3" depart="7" departLane = "2" departSpeed="11.180000"/>
	<vehicle id="SX_40" type="car7" route="route0_4_2" depart="7" departLane = "1" departSpeed="11.180000"/>
	<vehicle id="SX_41" type="car9" route="route1_2_4" depart="7" departLane = "1" departSpeed="11.180000"/>
	<vehicle id="LX_42" type="car5" route="route1_3_4" depart="7" departLane = "2" departSpeed="11.180000"/>
	<vehicle id="LL_43" type="car6" route="route1_4_1" depart="7" departLane = "2" departSpeed="11.180000"/>
	<vehicle id="RX_44" type="car6" route="route0_1_4" depart="8" departLane = "0" departSpeed="11.180000"/>
	<vehicle id="LL_45" type="car6" route="route0_2_3" depart="8" departLane = "2" departSpeed="11.180000"/>
	<vehicle id="SX_46" type="car8" route="route0_4_2" depart="8" departLane = "1" departSpeed="11.180000"/>
	<vehicle id="SX_47" type="car8" route="route1_2_4" depart="8" departLane = "1" departSpeed="11.180000"/>
	<vehicle id="RX_48" type="car8" route="route1_3_2" depart="8" departLane = "0" departSpeed="11.180000"/>
	<vehicle id="RX_49" type="car7" route="route1_4_3" depart="8" departLane = "0" departSpeed="11.180000"/>
	<vehicle id="LX_50" type="car6" route="route0_1_2" depart="9" departLane = "2" departSpeed="11.180000"/>
	<vehicle id="RX_51" type="car7" route="route0_2_1" depart="9" departLane = "0" departSpeed="11.180000"/>
	<vehicle id="LX_52" type="car9" route="route0_4_1" depart="9" departLane = "2" departSpeed="11.180000"/>
	<vehicle id="SX_53" type="car6" route="route1_2_4" depart="9" departLane = "1" departSpeed="11.180000"/>
	<vehicle id="LX_54" type="car6" route="route1_3_4" depart="9" departLane = "2" departSpeed="11.180000"/>
	<vehicle id="SX_55" type="car5" route="route1_4_2" depart="9" departLane = "1" departSpeed="11.180000"/>
	<vehicle id="SS_56" type="car6" route="route0_1_3" depart="10" departLane = "1" departSpeed="11.180000"/>
	<vehicle id="SX_57" type="car9" route="route0_2_4" depart="10" departLane = "1" departSpeed="11.180000"/>
	<vehicle id="LX_58" type="car9" route="route0_4_1" depart="10" departLane = "2" departSpeed="11.180000"/>
	<vehicle id="LX_59" type="car5" route="route1_3_4" depart="10" departLane = "2" departSpeed="11.180000"/>
	<vehicle id="LR_60" type="car6" route="route1_4_1" depart="10" departLane = "2" departSpeed="11.180000"/>
	<vehicle id="SS_61" type="car8" route="route0_1_3" depart="11" departLane = "1" departSpeed="11.180000"/>
	<vehicle id="SX_62" type="car5" route="route0_4_2" depart="11" departLane = "1" departSpeed="11.180000"/>
	<vehicle id="SX_63" type="car5" route="route1_2_4" depart="11" departLane = "1" departSpeed="11.180000"/>
	<vehicle id="RX_64" type="car7" route="route1_3_2" depart="11" departLane = "0" departSpeed="11.180000"/>
	<vehicle id="SX_65" type="car5" route="route1_4_2" depart="11" departLane = "1" departSpeed="11.180000"/>
	<vehicle id="LX_66" type="car8" route="route0_1_2" depart="12" departLane = "2" departSpeed="11.180000"/>
	<vehicle id="RX_67" type="car6" route="route0_2_1" depart="12" departLane = "0" departSpeed="11.180000"/>
	<vehicle id="LX_68" type="car5" route="route0_4_1" depart="12" departLane = "2" departSpeed="11.180000"/>
	<vehicle id="LX_69" type="car8" route="route1_2_3" depart="12" departLane = "2" departSpeed="11.180000"/>
	<vehicle id="SS_70" type="car7" route="route1_3_1" depart="12" departLane = "1" departSpeed="11.180000"/>
	<vehicle id="LL_71" type="car5" route="route1_4_1" depart="12" departLane = "2" departSpeed="11.180000"/>
	<vehicle id="SL_72" type="car5" route="route0_1_3" depart="13" departLane = "1" departSpeed="11.180000"/>
	<vehicle id="LS_73" type="car5" route="route0_2_3" depart="13" departLane = "2" departSpeed="11.180000"/>
	<vehicle id="SX_74" type="car6" route="route0_4_2" depart="13" departLane = "1" departSpeed="11.180000"/>
	<vehicle id="LX_75" type="car5" route="route1_2_3" depart="13" departLane = "2" departSpeed="11.180000"/>
	<vehicle id="SL_76" type="car7" route="route1_3_1" depart="13" departLane = "1" departSpeed="11.180000"/>
	<vehicle id="RX_77" type="car5" route="route1_4_3" depart="13" departLane = "0" departSpeed="11.180000"/>
	<vehicle id="RX_78" type="car9" route="route0_1_4" depart="14" departLane = "0" departSpeed="11.180000"/>
	<vehicle id="LL_79" type="car9" route="route0_2_3" depart="14" departLane = "2" departSpeed="11.180000"/>
	<vehicle id="RS_80" type="car9" route="route0_4_3" depart="14" departLane = "0" departSpeed="11.180000"/>
	<vehicle id="LX_81" type="car7" route="route1_2_3" depart="14" departLane = "2" departSpeed="11.180000"/>
	<vehicle id="LX_82" type="car7" route="route1_3_4" depart="14" departLane = "2" departSpeed="11.180000"/>
	<vehicle id="RX_83" type="car8" route="route0_1_4" depart="15" departLane = "0" departSpeed="11.180000"/>
	<vehicle id="SX_84" type="car6" route="route0_2_4" depart="15" departLane = "1" departSpeed="11.180000"/>
	<vehicle id="LX_85" type="car8" route="route0_4_1" depart="15" departLane = "2" departSpeed="11.180000"/>
	<vehicle id="SX_86" type="car8" route="route1_2_4" depart="15" departLane = "1" departSpeed="11.180000"/>
	<vehicle id="LX_87" type="car7" route="route1_3_4" depart="15" departLane = "2" departSpeed="11.180000"/>
	<vehicle id="RX_88" type="car5" route="route1_4_3" depart="15" departLane = "0" departSpeed="11.180000"/>
	<vehicle id="SR_89" type="car6" route="route0_1_3" depart="16" departLane = "1" departSpeed="11.180000"/>
	<vehicle id="SX_90" type="car6" route="route0_2_4" depart="16" departLane = "1" departSpeed="11.180000"/>
	<vehicle id="RL_91" type="car8" route="route0_4_3" depart="16" departLane = "0" departSpeed="11.180000"/>
	<vehicle id="SX_92" type="car9" route="route1_2_4" depart="16" departLane = "1" departSpeed="11.180000"/>
	<vehicle id="SR_93" type="car7" route="route1_3_1" depart="16" departLane = "1" departSpeed="11.180000"/>
	<vehicle id="LR_94" type="car8" route="route1_4_1" depart="16" departLane = "2" departSpeed="11.180000"/>
	<vehicle id="RX_95" type="car5" route="route0_1_4" depart="17" departLane = "0" departSpeed="11.180000"/>
	<vehicle id="SX_96" type="car8" route="route0_2_4" depart="17" departLane = "1" departSpeed="11.180000"/>
	<vehicle id="LX_97" type="car5" route="route0_4_1" depart="17" departLane = "2" departSpeed="11.180000"/>
	<vehicle id="RR_98" type="car7" route="route1_2_1" depart="17" departLane = "0" departSpeed="11.180000"/>
	<vehicle id="RX_99" type="car5" route="route1_3_2" depart="17" departLane = "0" departSpeed="11.180000"/>
	<vehicle id="SX_100" type="car6" route="route1_4_2" depart="17" departLane = "1" departSpeed="11.180000"/>
	<vehicle id="RX_101" type="car5" route="route0_1_4" depart="18" departLane = "0" departSpeed="11.180000"/>
	<vehicle id="LX_102" type="car9" route="route0_4_1" depart="18" departLane = "2" departSpeed="11.180000"/>
	<vehicle id="SR_103" type="car5" route="route1_3_1" depart="18" departLane = "1" departSpeed="11.180000"/>
	<vehicle id="RX_104" type="car6" route="route1_4_3" depart="18" departLane = "0" departSpeed="11.180000"/>
	<vehicle id="RX_105" type="car5" route="route0_1_4" depart="19" departLane = "0" departSpeed="11.180000"/>
	<vehicle id="RX_106" type="car5" route="route0_2_1" depart="19" departLane = "0" departSpeed="11.180000"/>
	<vehicle id="RR_107" type="car9" route="route0_4_3" depart="19" departLane = "0" departSpeed="11.180000"/>
	<vehicle id="RX_108" type="car8" route="route1_3_2" depart="19" departLane = "0" departSpeed="11.180000"/>
	<vehicle id="SX_109" type="car7" route="route1_4_2" depart="19" departLane = "1" departSpeed="11.180000"/>
	<vehicle id="LX_110" type="car8" route="route0_1_2" depart="20" departLane = "2" departSpeed="11.180000"/>
	<vehicle id="RX_111" type="car6" route="route0_2_1" depart="20" departLane = "0" departSpeed="11.180000"/>
	<vehicle id="LX_112" type="car5" route="route0_4_1" depart="20" departLane = "2" departSpeed="11.180000"/>
	<vehicle id="RS_113" type="car9" route="route1_2_1" depart="20" departLane = "0" departSpeed="11.180000"/>
	<vehicle id="SL_114" type="car5" route="route1_3_1" depart="20" departLane = "1" departSpeed="11.180000"/>
	<vehicle id="RX_115" type="car5" route="route1_4_3" depart="20" departLane = "0" departSpeed="11.180000"/>
	<vehicle id="LX_116" type="car9" route="route0_1_2" depart="21" departLane = "2" departSpeed="11.180000"/>
	<vehicle id="RX_117" type="car6" route="route0_2_1" depart="21" departLane = "0" departSpeed="11.180000"/>
	<vehicle id="RS_118" type="car6" route="route0_4_3" depart="21" departLane = "0" departSpeed="11.180000"/>
	<vehicle id="SX_119" type="car9" route="route1_2_4" depart="21" departLane = "1" departSpeed="11.180000"/>
	<vehicle id="LR_120" type="car9" route="route1_4_1" depart="21" departLane = "2" departSpeed="11.180000"/>
	<vehicle id="LS_121" type="car9" route="route0_2_3" depart="22" departLane = "2" departSpeed="11.180000"/>
	<vehicle id="SX_122" type="car6" route="route1_2_4" depart="22" departLane = "1" departSpeed="11.180000"/>
	<vehicle id="RX_123" type="car8" route="route1_3_2" depart="22" departLane = "0" departSpeed="11.180000"/>
	<vehicle id="SX_124" type="car6" route="route1_4_2" depart="22" departLane = "1" departSpeed="11.180000"/>
	<vehicle id="RX_125" type="car6" route="route0_1_4" depart="23" departLane = "0" departSpeed="11.180000"/>
	<vehicle id="RX_126" type="car6" route="route0_2_1" depart="23" departLane = "0" departSpeed="11.180000"/>
	<vehicle id="RL_127" type="car8" route="route0_4_3" depart="23" departLane = "0" departSpeed="11.180000"/>
	<vehicle id="LX_128" type="car7" route="route1_2_3" depart="23" departLane = "2" departSpeed="11.180000"/>
	<vehicle id="SR_129" type="car7" route="route1_3_1" depart="23" departLane = "1" departSpeed="11.180000"/>
	<vehicle id="SX_130" type="car5" route="route1_4_2" depart="23" departLane = "1" departSpeed="11.180000"/>
	<vehicle id="SL_131" type="car5" route="route0_1_3" depart="24" departLane = "1" departSpeed="11.180000"/>
	<vehicle id="SX_132" type="car8" route="route0_2_4" depart="24" departLane = "1" departSpeed="11.180000"/>
	<vehicle id="RS_133" type="car8" route="route0_4_3" depart="24" departLane = "0" departSpeed="11.180000"/>
	<vehicle id="LX_134" type="car7" route="route1_2_3" depart="24" departLane = "2" departSpeed="11.180000"/>
	<vehicle id="SR_135" type="car8" route="route1_3_1" depart="24" departLane = "1" departSpeed="11.180000"/>
	<vehicle id="SX_136" type="car8" route="route1_4_2" depart="24" departLane = "1" departSpeed="11.180000"/>
	<vehicle id="RX_137" type="car7" route="route0_1_4" depart="25" departLane = "0" departSpeed="11.180000"/>
	<vehicle id="SX_138" type="car5" route="route0_2_4" depart="25" departLane = "1" departSpeed="11.180000"/>
	<vehicle id="LX_139" type="car7" route="route0_4_1" depart="25" departLane = "2" departSpeed="11.180000"/>
	<vehicle id="SX_140" type="car6" route="route1_2_4" depart="25" departLane = "1" departSpeed="11.180000"/>
	<vehicle id="LX_141" type="car7" route="route1_3_4" depart="25" departLane = "2" departSpeed="11.180000"/>
	<vehicle id="RX_142" type="car8" route="route1_4_3" depart="25" departLane = "0" departSpeed="11.180000"/>
	<vehicle id="LX_143" type="car7" route="route0_1_2" depart="26" departLane = "2" departSpeed="11.180000"/>
	<vehicle id="RX_144" type="car5" route="route0_2_1" depart="26" departLane = "0" departSpeed="11.180000"/>
	<vehicle id="SX_145" type="car5" route="route1_2_4" depart="26" departLane = "1" departSpeed="11.180000"/>
	<vehicle id="SL_146" type="car5" route="route1_3_1" depart="26" departLane = "1" departSpeed="11.180000"/>
	<vehicle id="RX_147" type="car9" route="route1_4_3" depart="26" departLane = "0" departSpeed="11.180000"/>
	<vehicle id="RX_148" type="car6" route="route0_1_4" depart="27" departLane = "0" departSpeed="11.180000"/>
	<vehicle id="RX_149" type="car7" route="route0_2_1" depart="27" departLane = "0" departSpeed="11.180000"/>
	<vehicle id="RR_150" type="car8" route="route0_4_3" depart="27" departLane = "0" departSpeed="11.180000"/>
	<vehicle id="RR_151" type="car6" route="route1_2_1" depart="27" departLane = "0" departSpeed="11.180000"/>
	<vehicle id="LX_152" type="car6" route="route1_3_4" depart="27" departLane = "2" departSpeed="11.180000"/>
	<vehicle id="SX_153" type="car8" route="route1_4_2" depart="27" departLane = "1" departSpeed="11.180000"/>
	<vehicle id="RX_154" type="car7" route="route0_1_4" depart="28" departLane = "0" departSpeed="11.180000"/>
	<vehicle id="LL_155" type="car8" route="route0_2_3" depart="28" departLane = "2" departSpeed="11.180000"/>
	<vehicle id="RL_156" type="car7" route="route0_4_3" depart="28" departLane = "0" departSpeed="11.180000"/>
	<vehicle id="LX_157" type="car8" route="route1_2_3" depart="28" departLane = "2" departSpeed="11.180000"/>
	<vehicle id="RX_158" type="car6" route="route1_4_3" depart="28" departLane = "0" departSpeed="11.180000"/>
	<vehicle id="SR_159" type="car7" route="route0_1_3" depart="29" departLane = "1" departSpeed="11.180000"/>
	<vehicle id="LS_160" type="car6" route="route0_2_3" depart="29" departLane = "2" departSpeed="11.180000"/>
	<vehicle id="LX_161" type="car8" route="route0_4_1" depart="29" departLane = "2" departSpeed="11.180000"/>
	<vehicle id="RR_162" type="car8" route="route1_2_1" depart="29" departLane = "0" departSpeed="11.180000"/>
	<vehicle id="LX_163" type="car9" route="route1_3_4" depart="29" departLane = "2" departSpeed="11.180000"/>
	<vehicle id="LR_164" type="car5" route="route1_4_1" depart="29" departLane = "2" departSpeed="11.180000"/>
	<vehicle id="LX_165" type="car8" route="route0_1_2" depart="30" departLane = "2" departSpeed="11.180000"/>
	<vehicle id="LL_166" type="car5" route="route0_2_3" depart="30" departLane = "2" departSpeed="11.180000"/>
	<vehicle id="SX_167" type="car7" route="route0_4_2" depart="30" departLane = "1" departSpeed="11.180000"/>
	<vehicle id="SS_168" type="car6" route="route1_3_1" depart="30" departLane = "1" departSpeed="11.180000"/>
	<vehicle id="LS_169" type="car7" route="route1_4_1" depart="30" departLane = "2" departSpeed="11.180000"/>
	<vehicle id="LX_170" type="car9" route="route0_1_2" depart="31" departLane = "2" departSpeed="11.180000"/>
	<vehicle id="LX_171" type="car7" route="route0_4_1" depart="31" departLane = "2" departSpeed="11.180000"/>
	<vehicle id="RL_172" type="car9" route="route1_2_1" depart="31" departLane = "0" departSpeed="11.180000"/>
	<vehicle id="SL_173" type="car7" route="route1_3_1" depart="31" departLane = "1" departSpeed="11.180000"/>
	<vehicle id="RX_174" type="car9" route="route1_4_3" depart="31" departLane = "0" departSpeed="11.180000"/>
	<vehicle id="RX_175" type="car9" route="route0_1_4" depart="32" departLane = "0" departSpeed="11.180000"/>
	<vehicle id="LX_176" type="car6" route="route0_4_1" depart="32" departLane = "2" departSpeed="11.180000"/>
	<vehicle id="RR_177" type="car8" route="route1_2_1" depart="32" departLane = "0" departSpeed="11.180000"/>
	<vehicle id="SX_178" type="car7" route="route1_4_2" depart="32" departLane = "1" departSpeed="11.180000"/>
	<vehicle id="RX_179" type="car8" route="route0_2_1" depart="33" departLane = "0" departSpeed="11.180000"/>
	<vehicle id="RL_180" type="car5" route="route1_2_1" depart="33" departLane = "0" departSpeed="11.180000"/>
	<vehicle id="LX_181" type="car7" route="route1_3_4" depart="33" departLane = "2" departSpeed="11.180000"/>
	<vehicle id="LL_182" type="car9" route="route1_4_1" depart="33" departLane = "2" departSpeed="11.180000"/>
	<vehicle id="LX_183" type="car5" route="route0_1_2" depart="34" departLane = "2" departSpeed="11.180000"/>
	<vehicle id="LS_184" type="car5" route="route0_2_3" depart="34" departLane = "2" departSpeed="11.180000"/>
	<vehicle id="LX_185" type="car8" route="route0_4_1" depart="34" departLane = "2" departSpeed="11.180000"/>
	<vehicle id="RL_186" type="car9" route="route1_2_1" depart="34" departLane = "0" departSpeed="11.180000"/>
	<vehicle id="RX_187" type="car5" route="route1_3_2" depart="34" departLane = "0" departSpeed="11.180000"/>
	<vehicle id="LS_188" type="car7" route="route1_4_1" depart="34" departLane = "2" departSpeed="11.180000"/>
	<vehicle id="LX_189" type="car8" route="route0_1_2" depart="35" departLane = "2" departSpeed="11.180000"/>
	<vehicle id="RX_190" type="car7" route="route0_2_1" depart="35" departLane = "0" departSpeed="11.180000"/>
	<vehicle id="SX_191" type="car8" route="route0_4_2" depart="35" departLane = "1" departSpeed="11.180000"/>
	<vehicle id="LX_192" type="car6" route="route1_3_4" depart="35" departLane = "2" departSpeed="11.180000"/>
	<vehicle id="SL_193" type="car6" route="route0_1_3" depart="36" departLane = "1" departSpeed="11.180000"/>
	<vehicle id="RX_194" type="car5" route="route0_2_1" depart="36" departLane = "0" departSpeed="11.180000"/>
	<vehicle id="RL_195" type="car8" route="route0_4_3" depart="36" departLane = "0" departSpeed="11.180000"/>
	<vehicle id="LX_196" type="car9" route="route1_2_3" depart="36" departLane = "2" departSpeed="11.180000"/>
	<vehicle id="RX_197" type="car6" route="route1_3_2" depart="36" departLane = "0" departSpeed="11.180000"/>
	<vehicle id="LL_198" type="car9" route="route1_4_1" depart="36" departLane = "2" departSpeed="11.180000"/>
	<vehicle id="LX_199" type="car5" route="route0_1_2" depart="37" departLane = "2" departSpeed="11.180000"/>
	<vehicle id="LR_200" type="car5" route="route0_2_3" depart="37" departLane = "2" departSpeed="11.180000"/>
	<vehicle id="LX_201" type="car6" route="route0_4_1" depart="37" departLane = "2" departSpeed="11.180000"/>
	<vehicle id="RR_202" type="car6" route="route1_2_1" depart="37" departLane = "0" departSpeed="11.180000"/>
	<vehicle id="SR_203" type="car7" route="route1_3_1" depart="37" departLane = "1" departSpeed="11.180000"/>
	<vehicle id="LS_204" type="car6" route="route1_4_1" depart="37" departLane = "2" departSpeed="11.180000"/>
	<vehicle id="SL_205" type="car5" route="route0_1_3" depart="38" departLane = "1" departSpeed="11.180000"/>
	<vehicle id="LR_206" type="car9" route="route0_2_3" depart="38" departLane = "2" departSpeed="11.180000"/>
	<vehicle id="SX_207" type="car8" route="route0_4_2" depart="38" departLane = "1" departSpeed="11.180000"/>
	<vehicle id="RS_208" type="car9" route="route1_2_1" depart="38" departLane = "0" departSpeed="11.180000"/>
	<vehicle id="RX_209" type="car5" route="route1_3_2" depart="38" departLane = "0" departSpeed="11.180000"/>
	<vehicle id="SX_210" type="car6" route="route1_4_2" depart="38" departLane = "1" departSpeed="11.180000"/>
	<vehicle id="SL_211" type="car5" route="route0_1_3" depart="39" departLane = "1" departSpeed="11.180000"/>
	<vehicle id="LL_212" type="car8" route="route0_2_3" depart="39" departLane = "2" departSpeed="11.180000"/>
	<vehicle id="SX_213" type="car7" route="route0_4_2" depart="39" departLane = "1" departSpeed="11.180000"/>
	<vehicle id="SX_214" type="car5" route="route1_2_4" depart="39" departLane = "1" departSpeed="11.180000"/>
	<vehicle id="LX_215" type="car8" route="route1_3_4" depart="39" departLane = "2" departSpeed="11.180000"/>
	<vehicle id="SS_216" type="car7" route="route0_1_3" depart="40" departLane = "1" departSpeed="11.180000"/>
	<vehicle id="RX_217" type="car9" route="route0_2_1" depart="40" departLane = "0" departSpeed="11.180000"/>
	<vehicle id="SX_218" type="car8" route="route0_4_2" depart="40" departLane = "1" departSpeed="11.180000"/>
	<vehicle id="SX_219" type="car6" route="route1_2_4" depart="40" departLane = "1" departSpeed="11.180000"/>
	<vehicle id="SS_220" type="car9" route="route1_3_1" depart="40" departLane = "1" departSpeed="11.180000"/>
	<vehicle id="LS_221" type="car9" route="route1_4_1" depart="40" departLane = "2" departSpeed="11.180000"/>
	<vehicle id="RX_222" type="car7" route="route0_1_4" depart="41" departLane = "0" departSpeed="11.180000"/>
	<vehicle id="RX_223" type="car8" route="route0_2_1" depart="41" departLane = "0" departSpeed="11.180000"/>
	<vehicle id="RS_224" type="car8" route="route0_4_3" depart="41" departLane = "0" departSpeed="11.180000"/>
	<vehicle id="RL_225" type="car9" route="route1_2_1" depart="41" departLane = "0" departSpeed="11.180000"/>
	<vehicle id="RX_226" type="car8" route="route1_3_2" depart="41" departLane = "0" departSpeed="11.180000"/>
	<vehicle id="LR_227" type="car6" route="route1_4_1" depart="41" departLane = "2" departSpeed="11.180000"/>
	<vehicle id="RX_228" type="car5" route="route0_1_4" depart="42" departLane = "0" departSpeed="11.180000"/>
	<vehicle id="LX_229" type="car9" route="route0_4_1" depart="42" departLane = "2" departSpeed="11.180000"/>
	<vehicle id="SX_230" type="car8" route="route1_2_4" depart="42" departLane = "1" departSpeed="11.180000"/>
	<vehicle id="RX_231" type="car8" route="route1_3_2" depart="42" departLane = "0" departSpeed="11.180000"/>
	<vehicle id="LR_232" type="car5" route="route1_4_1" depart="42" departLane = "2" departSpeed="11.180000"/>
	<vehicle id="SL_233" type="car6" route="route0_1_3" depart="43" departLane = "1" departSpeed="11.180000"/>
	<vehicle id="RX_234" type="car5" route="route1_4_3" depart="43" departLane = "0" departSpeed="11.180000"/>
	<vehicle id="SR_235" type="car5" route="route0_1_3" depart="44" departLane = "1" departSpeed="11.180000"/>
	<vehicle id="LR_236" type="car7" route="route0_2_3" depart="44" departLane = "2" departSpeed="11.180000"/>
	<vehicle id="RS_237" type="car8" route="route0_4_3" depart="44" departLane = "0" departSpeed="11.180000"/>
	<vehicle id="RR_238" type="car6" route="route1_2_1" depart="44" departLane = "0" departSpeed="11.180000"/>
	<vehicle id="RX_239" type="car9" route="route1_4_3" depart="44" departLane = "0" departSpeed="11.180000"/>
	<vehicle id="LX_240" type="car8" route="route0_1_2" depart="45" departLane = "2" departSpeed="11.180000"/>
	<vehicle id="RX_241" type="car8" route="route0_2_1" depart="45" departLane = "0" departSpeed="11.180000"/>
	<vehicle id="SX_242" type="car5" route="route0_4_2" depart="45" departLane = "1" departSpeed="11.180000"/>
	<vehicle id="RS_243" type="car8" route="route1_2_1" depart="45" departLane = "0" departSpeed="11.180000"/>
	<vehicle id="SL_244" type="car8" route="route1_3_1" depart="45" departLane = "1" departSpeed="11.180000"/>
	<vehicle id="LS_245" type="car6" route="route1_4_1" depart="45" departLane = "2" departSpeed="11.180000"/>
	<vehicle id="SR_246" type="car8" route="route0_1_3" depart="46" departLane = "1" departSpeed="11.180000"/>
	<vehicle id="LL_247" type="car7" route="route0_2_3" depart="46" departLane = "2" departSpeed="11.180000"/>
	<vehicle id="LX_248" type="car7" route="route0_4_1" depart="46" departLane = "2" departSpeed="11.180000"/>
	<vehicle id="SX_249" type="car7" route="route1_2_4" depart="46" departLane = "1" departSpeed="11.180000"/>
	<vehicle id="LX_250" type="car8" route="route1_3_4" depart="46" departLane = "2" departSpeed="11.180000"/>
	<vehicle id="LR_251" type="car7" route="route1_4_1" depart="46" departLane = "2" departSpeed="11.180000"/>
	<vehicle id="RX_252" type="car7" route="route0_1_4" depart="47" departLane = "0" departSpeed="11.180000"/>
	<vehicle id="LL_253" type="car8" route="route0_2_3" depart="47" departLane = "2" departSpeed="11.180000"/>
	<vehicle id="LX_254" type="car7" route="route0_4_1" depart="47" departLane = "2" departSpeed="11.180000"/>
	<vehicle id="SR_255" type="car5" route="route1_3_1" depart="47" departLane = "1" departSpeed="11.180000"/>
	<vehicle id="SX_256" type="car8" route="route1_4_2" depart="47" departLane = "1" departSpeed="11.180000"/>
	<vehicle id="RX_257" type="car9" route="route0_1_4" depart="48" departLane = "0" departSpeed="11.180000"/>
	<vehicle id="SX_258" type="car8" route="route0_2_4" depart="48" departLane = "1" departSpeed="11.180000"/>
	<vehicle id="RR_259" type="car5" route="route0_4_3" depart="48" departLane = "0" departSpeed="11.180000"/>
	<vehicle id="SX_260" type="car7" route="route1_2_4" depart="48" departLane = "1" departSpeed="11.180000"/>