<routes>

	<vType id="car5" accel="200.0" decel="200.0" sigma="0.0" length="5" minGap="3.000000" maxSpeed="11.180000" tau="0.100000" carFollowModel="CACC" color="255,255,255"/>
	<vType id="car6" accel="200.0" decel="200.0" sigma="0.0" length="6" minGap="3.000000" maxSpeed="11.180000" tau="0.100000" carFollowModel="CACC" color="255,255,255"/>
	<vType id="car7" accel="200.0" decel="200.0" sigma="0.0" length="7" minGap="3.000000" maxSpeed="11.180000" tau="0.100000" carFollowModel="CACC" color="255,255,255"/>
	<vType id="car8" accel="200.0" decel="200.0" sigma="0.0" length="8" minGap="3.000000" maxSpeed="11.180000" tau="0.100000" carFollowModel="CACC" color="255,255,255"/>
	<vType id="car9" accel="200.0" decel="200.0" sigma="0.0" length="9" minGap="3.000000" maxSpeed="11.180000" tau="0.100000" carFollowModel="CACC" color="255,255,255"/>

	<route id="route0_1_2" edges=" 001_001_1"/>
	<route id="route0_1_3" edges=" 001_001_1"/>
	<route id="route0_1_4" edges=" 001_001_1"/>
	<route id="route0_2_1" edges=" 001_001_2"/>
	<route id="route0_2_3" edges=" 001_001_2"/>
	<route id="route0_2_4" edges=" 001_001_2"/>
	<route id="route0_3_1" edges=" 001_001_3"/>
	<route id="route0_3_2" edges=" 001_001_3"/>
	<route id="route0_3_4" edges=" 001_001_3"/>
	<route id="route0_4_1" edges=" 001_001_4"/>
	<route id="route0_4_2" edges=" 001_001_4"/>
	<route id="route0_4_3" edges=" 001_001_4"/>
	<route id="route1_1_2" edges=" 002_001_1"/>
	<route id="route1_1_3" edges=" 002_001_1"/>
	<route id="route1_1_4" edges=" 002_001_1"/>
	<route id="route1_2_1" edges=" 002_001_2"/>
	<route id="route1_2_3" edges=" 002_001_2"/>
	<route id="route1_2_4" edges=" 002_001_2"/>
	<route id="route1_3_1" edges=" 002_001_3"/>
	<route id="route1_3_2" edges=" 002_001_3"/>
	<route id="route1_3_4" edges=" 002_001_3"/>
	<route id="route1_4_1" edges=" 002_001_4"/>
	<route id="route1_4_2" edges=" 002_001_4"/>
	<route id="route1_4_3" edges=" 002_001_4"/>
	<route id="route2_1_2" edges=" 003_001_1"/>
	<route id="route2_1_3" edges=" 003_001_1"/>
	<route id="route2_1_4" edges=" 003_001_1"/>
	<route id="route2_2_1" edges=" 003_001_2"/>
	<route id="route2_2_3" edges=" 003_001_2"/>
	<route id="route2_2_4" edges=" 003_001_2"/>
	<route id="route2_3_1" edges=" 003_001_3"/>
	<route id="route2_3_2" edges=" 003_001_3"/>
	<route id="route2_3_4" edges=" 003_001_3"/>
	<route id="route2_4_1" edges=" 003_001_4"/>
	<route id="route2_4_2" edges=" 003_001_4"/>
	<route id="route2_4_3" edges=" 003_001_4"/>

	<vehicle id="SX_0" type="car8" route="route0_2_4" depart="0" departLane = "1" departSpeed="11.180000"/>
	<vehicle id="RSSX_1" type="car9" route="route0_4_3" depart="0" departLane = "0" departSpeed="11.180000"/>
	<vehicle id="SX_2" type="car7" route="route1_2_4" depart="0" departLane = "1" departSpeed="11.180000"/>
	<vehicle id="SX_3" type="car6" route="route2_2_4" depart="0" departLane = "1" departSpeed="11.180000"/>
	<vehicle id="LX_4" type="car7" route="route2_3_4" depart="0" departLane = "2" departSpeed="11.180000"/>
	<vehicle id="LLX_5" type="car5" route="route2_4_1" depart="0" departLane = "2" departSpeed="11.180000"/>
	<vehicle id="SRX_6" type="car7" route="route0_1_3" depart="1" departLane = "1" departSpeed="11.180000"/>
	<vehicle id="SX_7" type="car9" route="route0_4_2" depart="1" departLane = "1" departSpeed="11.180000"/>
	<vehicle id="SX_8" type="car5" route="route1_4_2" depart="1" departLane = "1" departSpeed="11.180000"/>
	<vehicle id="RX_9" type="car8" route="route2_3_2" depart="1" departLane = "0" departSpeed="11.180000"/>
	<vehicle id="SX_10" type="car7" route="route2_4_2" depart="1" departLane = "1" departSpeed="11.180000"/>
	<vehicle id="SSSX_11" type="car9" route="route0_1_3" depart="2" departLane = "1" departSpeed="11.180000"/>
	<vehicle id="RX_12" type="car6" route="route0_2_1" depart="2" departLane = "0" departSpeed="11.180000"/>
	<vehicle id="RRLX_13" type="car9" route="route1_2_1" depart="2" departLane = "0" departSpeed="11.180000"/>
	<vehicle id="RSX_14" type="car9" route="route1_4_3" depart="2" departLane = "0" departSpeed="11.180000"/>
	<vehicle id="RX_15" type="car8" route="route2_3_2" depart="2" departLane = "0" departSpeed="11.180000"/>
	<vehicle id="RX_16" type="car5" route="route2_4_3" depart="2" departLane = "0" departSpeed="11.180000"/>
	<vehicle id="SSLX_17" type="car7" route="route0_1_3" depart="3" departLane = "1" departSpeed="11.180000"/>
	<vehicle id="SX_18" type="car7" route="route0_2_4" depart="3" departLane = "1" departSpeed="11.180000"/>
	<vehicle id="SX_19" type="car5" route="route0_4_2" depart="3" departLane = "1" departSpeed="11.180000"/>
	<vehicle id="LRLX_20" type="car9" route="route1_2_3" depart="3" departLane = "2" departSpeed="11.180000"/>
	<vehicle id="SX_21" type="car6" route="route1_4_2" depart="3" departLane = "1" departSpeed="11.180000"/>
	<vehicle id="LX_22" type="car5" route="route2_3_4" depart="3" departLane = "2" departSpeed="11.180000"/>
	<vehicle id="SX_23" type="car7" route="route0_4_2" depart="4" departLane = "1" departSpeed="11.180000"/>
	<vehicle id="SX_24" type="car5" route="route1_2_4" depart="4" departLane = "1" departSpeed="11.180000"/>
	<vehicle id="SX_25" type="car9" route="route1_4_2" depart="4" departLane = "1" departSpeed="11.180000"/>
	<vehicle id="RRX_26" type="car9" route="route2_2_1" depart="4" departLane = "0" departSpeed="11.180000"/>
	<vehicle id="SSSX_27" type="car7" route="route2_3_1" depart="4" departLane = "1" departSpeed="11.180000"/>
	<vehicle id="LRX_28" type="car9" route="route2_4_1" depart="4" departLane = "2" departSpeed="11.180000"/>
	<vehicle id="SLX_29" type="car7" route="route0_1_3" depart="5" departLane = "1" departSpeed="11.180000"/>
	<vehicle id="SX_30" type="car7" route="route0_2_4" depart="5" departLane = "1" departSpeed="11.180000"/>
	<vehicle id="RSLX_31" type="car6" route="route0_4_3" depart="5" departLane = "0" departSpeed="11.180000"/>
	<vehicle id="SX_32" type="car7" route="route1_2_4" depart="5" departLane = "1" departSpeed="11.180000"/>
	<vehicle id="SX_33" type="car5" route="route1_4_2" depart="5" departLane = "1" departSpeed="11.180000"/>
	<vehicle id="RLX_34" type="car6" route="route2_2_1" depart="5" departLane = "0" departSpeed="11.180000"/>
	<vehicle id="LLLX_35" type="car8" route="route1_2_3" depart="6" departLane = "2" departSpeed="11.180000"/>
	<vehicle id="SX_36" type="car9" route="route2_2_4" depart="6" departLane = "1" departSpeed="11.180000"/>
	<vehicle id="SX_37" type="car8" route="route0_2_4" depart="7" departLane = "1" departSpeed="11.180000"/>
	<vehicle id="SX_38" type="car8" route="route0_4_2" depart="7" departLane = "1" departSpeed="11.180000"/>
	<vehicle id="SX_39" type="car7" route="route1_2_4" depart="7" departLane = "1" departSpeed="11.180000"/>
	<vehicle id="SX_40" type="car9" route="route1_4_2" depart="7" departLane = "1" departSpeed="11.180000"/>
	<vehicle id="RLX_41" type="car9" route="route2_2_1" depart="7" departLane = "0" departSpeed="11.180000"/>
	<vehicle id="RX_42" type="car6" route="route2_3_2" depart="7" departLane = "0" departSpeed="11.180000"/>
	<vehicle id="RX_43" type="car7" route="route2_4_3" depart="7" departLane = "0" departSpeed="11.180000"/>
	<vehicle id="SLX_44" type="car6" route="route0_1_3" depart="8" departLane = "1" departSpeed="11.180000"/>
	<vehicle id="SX_45" type="car6" route="route0_2_4" depart="8" departLane = "1" departSpeed="11.180000"/>
	<vehicle id="RRX_46" type="car5" route="route0_4_3" depart="8" departLane = "0" departSpeed="11.180000"/>
	<vehicle id="RSX_47" type="car6" route="route1_2_1" depart="8" departLane = "0" departSpeed="11.180000"/>
	<vehicle id="LX_48" type="car9" route="route2_2_3" depart="8" departLane = "2" departSpeed="11.180000"/>
	<vehicle id="SLX_49" type="car9" route="route2_3_1" depart="8" departLane = "1" departSpeed="11.180000"/>
	<vehicle id="SX_50" type="car5" route="route2_4_2" depart="8" departLane = "1" departSpeed="11.180000"/>
	<vehicle id="RX_51" type="car6" route="route0_1_4" depart="9" departLane = "0" departSpeed="11.180000"/>
	<vehicle id="SX_52" type="car9" route="route0_2_4" depart="9" departLane = "1" departSpeed="11.180000"/>
	<vehicle id="SX_53" type="car5" route="route0_4_2" depart="9" departLane = "1" departSpeed="11.180000"/>
	<vehicle id="RRRX_54" type="car5" route="route1_2_1" depart="9" departLane = "0" departSpeed="11.180000"/>
	<vehicle id="LRLX_55" type="car5" route="route1_4_1" depart="9" departLane = "2" departSpeed="11.180000"/>
	<vehicle id="LX_56" type="car6" route="route2_2_3" depart="9" departLane = "2" departSpeed="11.180000"/>
	<vehicle id="SLX_57" type="car8" route="route2_3_1" depart="9" departLane = "1" departSpeed="11.180000"/>
	<vehicle id="SX_58" type="car5" route="route2_4_2" depart="9" departLane = "1" departSpeed="11.180000"/>
	<vehicle id="RX_59" type="car8" route="route0_2_1" depart="10" departLane = "0" departSpeed="11.180000"/>
	<vehicle id="LX_60" type="car7" route="route0_4_1" depart="10" departLane = "2" departSpeed="11.180000"/>
	<vehicle id="RLLX_61" type="car5" route="route1_2_1" depart="10" departLane = "0" departSpeed="11.180000"/>
	<vehicle id="RLRX_62" type="car7" route="route1_4_3" depart="10" departLane = "0" departSpeed="11.180000"/>
	<vehicle id="SX_63" type="car5" route="route2_2_4" depart="10" departLane = "1" departSpeed="11.180000"/>
	<vehicle id="LX_64" type="car5" route="route2_3_4" depart="10" departLane = "2" departSpeed="11.180000"/>
	<vehicle id="RX_65" type="car8" route="route2_4_3" depart="10" departLane = "0" departSpeed="11.180000"/>
	<vehicle id="LX_66" type="car7" route="route0_1_2" depart="11" departLane = "2" departSpeed="11.180000"/>
	<vehicle id="RLX_67" type="car9" route="route0_4_3" depart="11" departLane = "0" departSpeed="11.180000"/>
	<vehicle id="RRLX_68" type="car6" route="route1_2_1" depart="11" departLane = "0" departSpeed="11.180000"/>
	<vehicle id="RSRX_69" type="car6" route="route2_2_1" depart="11" departLane = "0" departSpeed="11.180000"/>
	<vehicle id="SX_70" type="car7" route="route2_4_2" depart="11" departLane = "1" departSpeed="11.180000"/>
	<vehicle id="LX_71" type="car8" route="route0_1_2" depart="12" departLane = "2" departSpeed="11.180000"/>
	<vehicle id="RX_72" type="car5" route="route0_2_1" depart="12" departLane = "0" departSpeed="11.180000"/>
	<vehicle id="SX_73" type="car8" route="route0_4_2" depart="12" departLane = "1" departSpeed="11.180000"/>
	<vehicle id="RX_74" type="car8" route="route2_3_2" depart="12" departLane = "0" departSpeed="11.180000"/>
	<vehicle id="RX_75" type="car9" route="route0_1_4" depart="13" departLane = "0" departSpeed="11.180000"/>
	<vehicle id="LRX_76" type="car8" route="route0_2_3" depart="13" departLane = "2" departSpeed="11.180000"/>
	<vehicle id="SX_77" type="car7" route="route0_4_2" depart="13" departLane = "1" departSpeed="11.180000"/>
	<vehicle id="RSX_78" type="car9" route="route1_2_1" depart="13" departLane = "0" departSpeed="11.180000"/>
	<vehicle id="RRLX_79" type="car6" route="route1_4_3" depart="13" departLane = "0" departSpeed="11.180000"/>
	<vehicle id="SX_80" type="car8" route="route2_2_4" depart="13" departLane = "1" departSpeed="11.180000"/>
	<vehicle id="SLX_81" type="car7" route="route2_3_1" depart="13" departLane = "1" departSpeed="11.180000"/>
	<vehicle id="SX_82" type="car9" route="route2_4_2" depart="13" departLane = "1" departSpeed="11.180000"/>
	<vehicle id="SX_83" type="car9" route="route0_2_4" depart="14" departLane = "1" departSpeed="11.180000"/>
	<vehicle id="SX_84" type="car7" route="route0_4_2" depart="14" departLane = "1" departSpeed="11.180000"/>
	<vehicle id="SX_85" type="car8" route="route1_2_4" depart="14" departLane = "1" departSpeed="11.180000"/>
	<vehicle id="RLX_86" type="car9" route="route2_2_1" depart="14" departLane = "0" departSpeed="11.180000"/>
	<vehicle id="SRX_87" type="car7" route="route2_3_1" depart="14" departLane = "1" departSpeed="11.180000"/>
	<vehicle id="RX_88" type="car6" route="route2_4_3" depart="14" departLane = "0" departSpeed="11.180000"/>
	<vehicle id="LX_89" type="car8" route="route0_1_2" depart="15" departLane = "2" departSpeed="11.180000"/>
	<vehicle id="LSSX_90" type="car9" route="route0_2_3" depart="15" departLane = "2" departSpeed="11.180000"/>
	<vehicle id="SX_91" type="car9" route="route1_2_4" depart="15" departLane = "1" departSpeed="11.180000"/>
	<vehicle id="SX_92" type="car5" route="route1_4_2" depart="15" departLane = "1" departSpeed="11.180000"/>
	<vehicle id="SX_93" type="car5" route="route2_2_4" depart="15" departLane = "1" departSpeed="11.180000"/>
	<vehicle id="SRX_94" type="car6" route="route2_3_1" depart="15" departLane = "1" departSpeed="11.180000"/>
	<vehicle id="SX_95" type="car8" route="route2_4_2" depart="15" departLane = "1" departSpeed="11.180000"/>
	<vehicle id="SX_96" type="car5" route="route0_2_4" depart="16" departLane = "1" departSpeed="11.180000"/>
	<vehicle id="RRLX_97" type="car7" route="route1_2_1" depart="16" departLane = "0" departSpeed="11.180000"/>
	<vehicle id="LX_98" type="car8" route="route2_2_3" depart="16" departLane = "2" departSpeed="11.180000"/>
	<vehicle id="SSSX_99" type="car5" route="route2_3_1" depart="16" departLane = "1" departSpeed="11.180000"/>
	<vehicle id="LX_100" type="car5" route="route0_1_2" depart="17" departLane = "2" departSpeed="11.180000"/>
	<vehicle id="RX_101" type="car8" route="route0_2_1" depart="17" departLane = "0" departSpeed="11.180000"/>
	<vehicle id="LX_102" type="car6" route="route0_4_1" depart="17" departLane = "2" departSpeed="11.180000"/>
	<vehicle id="SX_103" type="car5" route="route1_2_4" depart="17" departLane = "1" departSpeed="11.180000"/>
	<vehicle id="LX_104" type="car9" route="route2_2_3" depart="17" departLane = "2" departSpeed="11.180000"/>
	<vehicle id="RX_105" type="car5" route="route2_3_2" depart="17" departLane = "0" departSpeed="11.180000"/>
	<vehicle id="RX_106" type="car6" route="route2_4_3" depart="17" departLane = "0" departSpeed="11.180000"/>
	<vehicle id="SX_107" type="car6" route="route0_2_4" depart="18" departLane = "1" departSpeed="11.180000"/>
	<vehicle id="SX_108" type="car8" route="route0_4_2" depart="18" departLane = "1" departSpeed="11.180000"/>
	<vehicle id="LRRX_109" type="car5" route="route1_2_3" depart="18" departLane = "2" departSpeed="11.180000"/>
	<vehicle id="RRSX_110" type="car8" route="route1_4_3" depart="18" departLane = "0" departSpeed="11.180000"/>
	<vehicle id="RLX_111" type="car5" route="route2_2_1" depart="18" departLane = "0" departSpeed="11.180000"/>
	<vehicle id="SX_112" type="car9" route="route2_4_2" depart="18" departLane = "1" departSpeed="11.180000"/>
	<vehicle id="RX_113" type="car5" route="route0_2_1" depart="19" departLane = "0" departSpeed="11.180000"/>
	<vehicle id="LSX_114" type="car5" route="route1_2_3" depart="19" departLane = "2" departSpeed="11.180000"/>
	<vehicle id="LLLX_115" type="car6" route="route1_4_1" depart="19" departLane = "2" departSpeed="11.180000"/>
	<vehicle id="LX_116" type="car9" route="route2_2_3" depart="19" departLane = "2" departSpeed="11.180000"/>
	<vehicle id="SRX_117" type="car7" route="route2_3_1" depart="19" departLane = "1" departSpeed="11.180000"/>
	<vehicle id="RX_118" type="car9" route="route0_2_1" depart="20" departLane = "0" departSpeed="11.180000"/>
	<vehicle id="SX_119" type="car8" route="route0_4_2" depart="20" departLane = "1" departSpeed="11.180000"/>
	<vehicle id="SX_120" type="car7" route="route1_2_4" depart="20" departLane = "1" departSpeed="11.180000"/>
	<vehicle id="RSLX_121" type="car8" route="route2_2_1" depart="20" departLane = "0" departSpeed="11.180000"/>
	<vehicle id="RX_122" type="car5" route="route2_3_2" depart="20" departLane = "0" departSpeed="11.180000"/>
	<vehicle id="RX_123" type="car7" route="route2_4_3" depart="20" departLane = "0" departSpeed="11.180000"/>
	<vehicle id="LX_124" type="car7" route="route0_1_2" depart="21" departLane = "2" departSpeed="11.180000"/>
	<vehicle id="RX_125" type="car7" route="route0_2_1" depart="21" departLane = "0" departSpeed="11.180000"/>
	<vehicle id="RRX_126" type="car5" route="route0_4_3" depart="21" departLane = "0" departSpeed="11.180000"/>
	<vehicle id="RSX_127" type="car6" route="route1_2_1" depart="21" departLane = "0" departSpeed="11.180000"/>
	<vehicle id="LLSX_128" type="car9" route="route1_4_1" depart="21" departLane = "2" departSpeed="11.180000"/>
	<vehicle id="RRX_129" type="car8" route="route2_2_1" depart="21" departLane = "0" departSpeed="11.180000"/>
	<vehicle id="SX_130" type="car5" route="route2_4_2" depart="21" departLane = "1" departSpeed="11.180000"/>
	<vehicle id="LX_131" type="car6" route="route0_1_2" depart="22" departLane = "2" departSpeed="11.180000"/>
	<vehicle id="LX_132" type="car9" route="route0_4_1" depart="22" departLane = "2" departSpeed="11.180000"/>
	<vehicle id="LSX_133" type="car7" route="route1_2_3" depart="22" departLane = "2" departSpeed="11.180000"/>
	<vehicle id="LRSX_134" type="car7" route="route1_4_1" depart="22" departLane = "2" departSpeed="11.180000"/>
	<vehicle id="SX_135" type="car5" route="route2_2_4" depart="22" departLane = "1" departSpeed="11.180000"/>
	<vehicle id="RX_136" type="car8" route="route2_3_2" depart="22" departLane = "0" departSpeed="11.180000"/>
	<vehicle id="RX_137" type="car7" route="route2_4_3" depart="22" departLane = "0" departSpeed="11.180000"/>
	<vehicle id="SRX_138" type="car5" route="route0_1_3" depart="23" departLane = "1" departSpeed="11.180000"/>
	<vehicle id="SX_139" type="car8" route="route0_2_4" depart="23" departLane = "1" departSpeed="11.180000"/>
	<vehicle id="RSRX_140" type="car7" route="route0_4_3" depart="23" departLane = "0" departSpeed="11.180000"/>
	<vehicle id="SX_141" type="car6" route="route1_2_4" depart="23" departLane = "1" departSpeed="11.180000"/>
	<vehicle id="LX_142" type="car8" route="route2_2_3" depart="23" departLane = "2" departSpeed="11.180000"/>
	<vehicle id="LX_143" type="car5" route="route0_1_2" depart="24" departLane = "2" departSpeed="11.180000"/>
	<vehicle id="RX_144" type="car6" route="route0_2_1" depart="24" departLane = "0" departSpeed="11.180000"/>
	<vehicle id="LX_145" type="car5" route="route0_4_1" depart="24" departLane = "2" departSpeed="11.180000"/>
	<vehicle id="SX_146" type="car9" route="route1_2_4" depart="24" departLane = "1" departSpeed="11.180000"/>
	<vehicle id="SX_147" type="car8" route="route1_4_2" depart="24" departLane = "1" departSpeed="11.180000"/>
	<vehicle id="RX_148" type="car6" route="route2_3_2" depart="24" departLane = "0" departSpeed="11.180000"/>
	<vehicle id="SX_149" type="car7" route="route2_4_2" depart="24" departLane = "1" departSpeed="11.180000"/>
	<vehicle id="RX_150" type="car7" route="route0_1_4" depart="25" departLane = "0" departSpeed="11.180000"/>
	<vehicle id="LRX_151" type="car6" route="route0_2_3" depart="25" departLane = "2" departSpeed="11.180000"/>
	<vehicle id="LX_152" type="car7" route="route0_4_1" depart="25" departLane = "2" departSpeed="11.180000"/>
	<vehicle id="RRLX_153" type="car5" route="route1_2_1" depart="25" departLane = "0" departSpeed="11.180000"/>
	<vehicle id="RLX_154" type="car6" route="route2_2_1" depart="25" departLane = "0" departSpeed="11.180000"/>
	<vehicle id="RX_155" type="car8" route="route2_3_2" depart="25" departLane = "0" departSpeed="11.180000"/>
	<vehicle id="LRX_156" type="car5" route="route2_4_1" depart="25" departLane = "2" departSpeed="11.180000"/>
	<vehicle id="SX_157" type="car9" route="route0_2_4" depart="26" departLane = "1" departSpeed="11.180000"/>
	<vehicle id="RLX_158" type="car6" route="route0_4_3" depart="26" departLane = "0" departSpeed="11.180000"/>
	<vehicle id="RSX_159" type="car7" route="route1_2_1" depart="26" departLane = "0" departSpeed="11.180000"/>
	<vehicle id="LLLX_160" type="car6" route="route1_4_1" depart="26" departLane = "2" departSpeed="11.180000"/>
	<vehicle id="RRX_161" type="car9" route="route2_2_1" depart="26" departLane = "0" departSpeed="11.180000"/>
	<vehicle id="LLX_162" type="car8" route="route2_4_1" depart="26" departLane = "2" departSpeed="11.180000"/>
	<vehicle id="RX_163" type="car8" route="route0_1_4" depart="27" departLane = "0" departSpeed="11.180000"/>
	<vehicle id="SX_164" type="car7" route="route0_4_2" depart="27" departLane = "1" departSpeed="11.180000"/>
	<vehicle id="RLX_165" type="car6" route="route2_2_1" depart="27" departLane = "0" departSpeed="11.180000"/>
	<vehicle id="LX_166" type="car6" route="route2_3_4" depart="27" departLane = "2" departSpeed="11.180000"/>
	<vehicle id="LRX_167" type="car7" route="route2_4_1" depart="27" departLane = "2" departSpeed="11.180000"/>
	<vehicle id="LRX_168" type="car6" route="route0_2_3" depart="28" departLane = "2" departSpeed="11.180000"/>
	<vehicle id="LLLX_169" type="car6" route="route1_2_3" depart="28" departLane = "2" departSpeed="11.180000"/>
	<vehicle id="SX_170" type="car8" route="route2_2_4" depart="28" departLane = "1" departSpeed="11.180000"/>
	<vehicle id="SRX_171" type="car5" route="route2_3_1" depart="28" departLane = "1" departSpeed="11.180000"/>
	<vehicle id="LLX_172" type="car5" route="route2_4_1" depart="28" departLane = "2" departSpeed="11.180000"/>
	<vehicle id="LX_173" type="car6" route="route0_1_2" depart="29" departLane = "2" departSpeed="11.180000"/>
	<vehicle id="LRX_174" type="car5" route="route0_2_3" depart="29" departLane = "2" departSpeed="11.180000"/>
	<vehicle id="RRX_175" type="car8" route="route0_4_3" depart="29" departLane = "0" departSpeed="11.180000"/>
	<vehicle id="LSX_176" type="car6" route="route1_2_3" depart="29" departLane = "2" departSpeed="11.180000"/>
	<vehicle id="LX_177" type="car7" route="route2_3_4" depart="29" departLane = "2" departSpeed="11.180000"/>
	<vehicle id="SX_178" type="car9" route="route2_4_2" depart="29" departLane = "1" departSpeed="11.180000"/>
	<vehicle id="RX_179" type="car9" route="route0_1_4" depart="30" departLane = "0" departSpeed="11.180000"/>
	<vehicle id="RX_180" type="car9" route="route0_2_1" depart="30" departLane = "0" departSpeed="11.180000"/>
	<vehicle id="SX_181" type="car5" route="route0_4_2" depart="30" departLane = "1" departSpeed="11.180000"/>
	<vehicle id="RLSX_182" type="car6" route="route1_2_1" depart="30" departLane = "0" departSpeed="11.180000"/>
	<vehicle id="SX_183" type="car9" route="route1_4_2" depart="30" departLane = "1" departSpeed="11.180000"/>
	<vehicle id="RSRX_184" type="car8" route="route2_2_1" depart="30" departLane = "0" departSpeed="11.180000"/>
	<vehicle id="SRX_185" type="car6" route="route0_1_3" depart="31" departLane = "1" departSpeed="11.180000"/>
	<vehicle id="LX_186" type="car5" route="route0_4_1" depart="31" departLane = "2" departSpeed="11.180000"/>
	<vehicle id="RRSX_187" type="car7" route="route1_2_1" depart="31" departLane = "0" departSpeed="11.180000"/>
	<vehicle id="RRSX_188" type="car7" route="route1_4_3" depart="31" departLane = "0" departSpeed="11.180000"/>
	<vehicle id="LX_189" type="car8" route="route2_2_3" depart="31" departLane = "2" departSpeed="11.180000"/>
	<vehicle id="LX_190" type="car8" route="route0_1_2" depart="32" departLane = "2" departSpeed="11.180000"/>
	<vehicle id="SX_191" type="car8" route="route0_2_4" depart="32" departLane = "1" departSpeed="11.180000"/>
	<vehicle id="SX_192" type="car6" route="route0_4_2" depart="32" departLane = "1" departSpeed="11.180000"/>
	<vehicle id="LSX_193" type="car7" route="route1_2_3" depart="32" departLane = "2" departSpeed="11.180000"/>
	<vehicle id="LRLX_194" type="car5" route="route1_4_1" depart="32" departLane = "2" departSpeed="11.180000"/>
	<vehicle id="RRX_195" type="car6" route="route2_2_1" depart="32" departLane = "0" departSpeed="11.180000"/>
	<vehicle id="RX_196" type="car9" route="route2_3_2" depart="32" departLane = "0" departSpeed="11.180000"/>
	<vehicle id="RX_197" type="car6" route="route2_4_3" depart="32" departLane = "0" departSpeed="11.180000"/>
	<vehicle id="RX_198" type="car5" route="route0_2_1" depart="33" departLane = "0" departSpeed="11.180000"/>
	<vehicle id="LX_199" type="car8" route="route0_4_1" depart="33" departLane = "2" departSpeed="11.180000"/>
	<vehicle id="LSX_200" type="car5" route="route1_2_3" depart="33" departLane = "2" departSpeed="11.180000"/>
	<vehicle id="LLLX_201" type="car6" route="route1_4_1" depart="33" departLane = "2" departSpeed="11.180000"/>
	<vehicle id="RLX_202" type="car9" route="route2_2_1" depart="33" departLane = "0" departSpeed="11.180000"/>
	<vehicle id="SLX_203" type="car7" route="route2_3_1" depart="33" departLane = "1" departSpeed="11.180000"/>
	<vehicle id="RX_204" type="car9" route="route2_4_3" depart="33" departLane = "0" departSpeed="11.180000"/>
	<vehicle id="LX_205" type="car6" route="route0_1_2" depart="34" departLane = "2" departSpeed="11.180000"/>
	<vehicle id="RX_206" type="car8" route="route0_2_1" depart="34" departLane = "0" departSpeed="11.180000"/>
	<vehicle id="RSSX_207" type="car5" route="route0_4_3" depart="34" departLane = "0" departSpeed="11.180000"/>
	<vehicle id="SX_208" type="car8" route="route1_2_4" depart="34" departLane = "1" departSpeed="11.180000"/>
	<vehicle id="RRSX_209" type="car7" route="route1_4_3" depart="34" departLane = "0" departSpeed="11.180000"/>
	<vehicle id="LX_210" type="car9" route="route2_2_3" depart="34" departLane = "2" departSpeed="11.180000"/>
	<vehicle id="SSSX_211" type="car6" route="route2_3_1" depart="34" departLane = "1" departSpeed="11.180000"/>
	<vehicle id="SSSX_212" type="car7" route="route0_1_3" depart="35" departLane = "1" departSpeed="11.180000"/>
	<vehicle id="RLSX_213" type="car5" route="route1_2_1" depart="35" departLane = "0" departSpeed="11.180000"/>
	<vehicle id="SX_214" type="car6" route="route1_4_2" depart="35" departLane = "1" departSpeed="11.180000"/>
	<vehicle id="LX_215" type="car8" route="route2_2_3" depart="35" departLane = "2" departSpeed="11.180000"/>
	<vehicle id="SLX_216" type="car6" route="route2_3_1" depart="35" departLane = "1" departSpeed="11.180000"/>
	<vehicle id="RX_217" type="car5" route="route2_4_3" depart="35" departLane = "0" departSpeed="11.180000"/>
	<vehicle id="RLX_218" type="car7" route="route0_4_3" depart="36" departLane = "0" departSpeed="11.180000"/>
	<vehicle id="LX_219" type="car9" route="route2_2_3" depart="36" departLane = "2" departSpeed="11.180000"/>
	<vehicle id="LRX_220" type="car9" route="route2_4_1" depart="36" departLane = "2" departSpeed="11.180000"/>
	<vehicle id="LX_221" type="car8" route="route0_1_2" depart="37" departLane = "2" departSpeed="11.180000"/>
	<vehicle id="RX_222" type="car5" route="route0_2_1" depart="37" departLane = "0" departSpeed="11.180000"/>
	<vehicle id="RRX_223" type="car9" route="route0_4_3" depart="37" departLane = "0" departSpeed="11.180000"/>
	<vehicle id="SX_224" type="car5" route="route1_2_4" depart="37" departLane = "1" departSpeed="11.180000"/>
	<vehicle id="SX_225" type="car5" route="route2_2_4" depart="37" departLane = "1" departSpeed="11.180000"/>
	<vehicle id="RX_226" type="car6" route="route2_3_2" depart="37" departLane = "0" departSpeed="11.180000"/>
	<vehicle id="SX_227" type="car5" route="route2_4_2" depart="37" departLane = "1" departSpeed="11.180000"/>
	<vehicle id="SLX_228" type="car8" route="route0_1_3" depart="38" departLane = "1" departSpeed="11.180000"/>
	<vehicle id="SX_229" type="car5" route="route0_2_4" depart="38" departLane = "1" departSpeed="11.180000"/>
	<vehicle id="RSLX_230" type="car7" route="route0_4_3" depart="38" departLane = "0" departSpeed="11.180000"/>
	<vehicle id="SX_231" type="car5" route="route1_2_4" depart="38" departLane = "1" departSpeed="11.180000"/>
	<vehicle id="RLLX_232" type="car5" route="route1_4_3" depart="38" departLane = "0" departSpeed="11.180000"/>
	<vehicle id="LX_233" type="car5" route="route2_2_3" depart="38" departLane = "2" departSpeed="11.180000"/>
	<vehicle id="LX_234" type="car6" route="route2_3_4" depart="38" departLane = "2" departSpeed="11.180000"/>
	<vehicle id="LLX_235" type="car6" route="route2_4_1" depart="38" departLane = "2" departSpeed="11.180000"/>
	<vehicle id="SX_236" type="car6" route="route0_2_4" depart="39" departLane = "1" departSpeed="11.180000"/>
	<vehicle id="LX_237" type="car6" route="route0_4_1" depart="39" departLane = "2" departSpeed="11.180000"/>
	<vehicle id="RLSX_238" type="car5" route="route1_2_1" depart="39" departLane = "0" departSpeed="11.180000"/>
	<vehicle id="RSX_239" type="car7" route="route1_4_3" depart="39" departLane = "0" departSpeed="11.180000"/>
	<vehicle id="RRX_240" type="car5" route="route2_2_1" depart="39" departLane = "0" departSpeed="11.180000"/>
	<vehicle id="RX_241" type="car6" route="route2_4_3" depart="39" departLane = "0" departSpeed="11.180000"/>
	<vehicle id="LX_242" type="car5" route="route0_1_2" depart="40" departLane = "2" departSpeed="11.180000"/>
	<vehicle id="RX_243" type="car7" route="route0_2_1" depart="40" departLane = "0" departSpeed="11.180000"/>
	<vehicle id="SX_244" type="car6" route="route0_4_2" depart="40" departLane = "1" departSpeed="11.180000"/>
	<vehicle id="LLSX_245" type="car8" route="route1_2_3" depart="40" departLane = "2" departSpeed="11.180000"/>
	<vehicle id="RSSX_246" type="car9" route="route2_2_1" depart="40" departLane = "0" departSpeed="11.180000"/>
	<vehicle id="RX_247" type="car6" route="route2_3_2" depart="40" departLane = "0" departSpeed="11.180000"/>
	<vehicle id="SX_248" type="car5" route="route2_4_2" depart="40" departLane = "1" departSpeed="11.180000"/>
	<vehicle id="LX_249" type="car9" route="route0_1_2" depart="41" departLane = "2" departSpeed="11.180000"/>
	<vehicle id="SX_250" type="car8" route="route0_2_4" depart="41" departLane = "1" departSpeed="11.180000"/>
	<vehicle id="RLX_251" type="car6" route="route2_2_1" depart="41" departLane = "0" departSpeed="11.180000"/>
	<vehicle id="RX_252" type="car6" route="route2_3_2" depart="41" departLane = "0" departSpeed="11.180000"/>
	<vehicle id="LLX_253" type="car8" route="route2_4_1" depart="41" departLane = "2" departSpeed="11.180000"/>
	<vehicle id="SRX_254" type="car6" route="route0_1_3" depart="42" departLane = "1" departSpeed="11.180000"/>