<routes>

	<vType id="car5" accel="100.0" decel="100.0" sigma="0.0" length="5" minGap="3.000000" maxSpeed="11.180000" tau="0.100000" carFollowModel="CACC" color="255,255,255"/>
	<vType id="car6" accel="100.0" decel="100.0" sigma="0.0" length="6" minGap="3.000000" maxSpeed="11.180000" tau="0.100000" carFollowModel="CACC" color="255,255,255"/>
	<vType id="car7" accel="100.0" decel="100.0" sigma="0.0" length="7" minGap="3.000000" maxSpeed="11.180000" tau="0.100000" carFollowModel="CACC" color="255,255,255"/>
	<vType id="car8" accel="100.0" decel="100.0" sigma="0.0" length="8" minGap="3.000000" maxSpeed="11.180000" tau="0.100000" carFollowModel="CACC" color="255,255,255"/>
	<vType id="car9" accel="100.0" decel="100.0" sigma="0.0" length="9" minGap="3.000000" maxSpeed="11.180000" tau="0.100000" carFollowModel="CACC" color="255,255,255"/>

	<route id="route0_1_2" edges=" 001_001_1"/>
	<route id="route0_1_3" edges=" 001_001_1"/>
	<route id="route0_1_4" edges=" 001_001_1"/>
	<route id="route0_2_1" edges=" 001_001_2"/>
	<route id="route0_2_3" edges=" 001_001_2"/>
	<route id="route0_2_4" edges=" 001_001_2"/>
	<route id="route0_3_1" edges=" 001_001_3"/>
	<route id="route0_3_2" edges=" 001_001_3"/>
	<route id="route0_3_4" edges=" 001_001_3"/>
	<route id="route0_4_1" edges=" 001_001_4"/>
	<route id="route0_4_2" edges=" 001_001_4"/>
	<route id="route0_4_3" edges=" 001_001_4"/>
	<route id="route1_1_2" edges=" 002_001_1"/>
	<route id="route1_1_3" edges=" 002_001_1"/>
	<route id="route1_1_4" edges=" 002_001_1"/>
	<route id="route1_2_1" edges=" 002_001_2"/>
	<route id="route1_2_3" edges=" 002_001_2"/>
	<route id="route1_2_4" edges=" 002_001_2"/>
	<route id="route1_3_1" edges=" 002_001_3"/>
	<route id="route1_3_2" edges=" 002_001_3"/>
	<route id="route1_3_4" edges=" 002_001_3"/>
	<route id="route1_4_1" edges=" 002_001_4"/>
	<route id="route1_4_2" edges=" 002_001_4"/>
	<route id="route1_4_3" edges=" 002_001_4"/>

	<vehicle id="RX_0" type="car6" route="route0_1_4" depart="0" departLane = "0" departSpeed="11.180000"/>
	<vehicle id="SX_1" type="car7" route="route0_2_4" depart="0" departLane = "0" departSpeed="11.180000"/>
	<vehicle id="RX_2" type="car6" route="route1_4_3" depart="0" departLane = "1" departSpeed="11.180000"/>
	<vehicle id="RX_3" type="car6" route="route0_1_4" depart="1" departLane = "0" departSpeed="11.180000"/>
	<vehicle id="RX_4" type="car8" route="route1_4_3" depart="1" departLane = "0" departSpeed="11.180000"/>
	<vehicle id="LX_5" type="car8" route="route1_2_3" depart="2" departLane = "1" departSpeed="11.180000"/>
	<vehicle id="RX_6" type="car7" route="route1_3_2" depart="2" departLane = "0" departSpeed="11.180000"/>
	<vehicle id="LL_7" type="car9" route="route1_4_1" depart="2" departLane = "2" departSpeed="11.180000"/>
	<vehicle id="SR_8" type="car9" route="route0_1_3" depart="3" departLane = "0" departSpeed="11.180000"/>
	<vehicle id="LR_9" type="car9" route="route0_2_3" depart="3" departLane = "2" departSpeed="11.180000"/>
	<vehicle id="RL_10" type="car7" route="route0_4_3" depart="3" departLane = "1" departSpeed="11.180000"/>
	<vehicle id="SX_11" type="car6" route="route1_2_4" depart="3" departLane = "0" departSpeed="11.180000"/>
	<vehicle id="LS_12" type="car8" route="route1_4_1" depart="3" departLane = "0" departSpeed="11.180000"/>
	<vehicle id="LX_13" type="car7" route="route0_1_2" depart="4" departLane = "1" departSpeed="11.180000"/>
	<vehicle id="RX_14" type="car5" route="route0_2_1" depart="4" departLane = "2" departSpeed="11.180000"/>
	<vehicle id="SX_15" type="car8" route="route0_4_2" depart="4" departLane = "0" departSpeed="11.180000"/>
	<vehicle id="RR_16" type="car8" route="route1_2_1" depart="4" departLane = "1" departSpeed="11.180000"/>
	<vehicle id="RX_17" type="car9" route="route1_3_2" depart="4" departLane = "1" departSpeed="11.180000"/>
	<vehicle id="LL_18" type="car6" route="route1_4_1" depart="4" departLane = "0" departSpeed="11.180000"/>
	<vehicle id="SX_19" type="car6" route="route0_2_4" depart="5" departLane = "0" departSpeed="11.180000"/>
	<vehicle id="LX_20" type="car5" route="route0_4_1" depart="5" departLane = "1" departSpeed="11.180000"/>
	<vehicle id="RS_21" type="car9" route="route1_2_1" depart="5" departLane = "2" departSpeed="11.180000"/>
	<vehicle id="SR_22" type="car9" route="route0_1_3" depart="6" departLane = "0" departSpeed="11.180000"/>
	<vehicle id="SX_23" type="car8" route="route0_4_2" depart="6" departLane = "2" departSpeed="11.180000"/>
	<vehicle id="LX_24" type="car7" route="route1_3_4" depart="6" departLane = "0" departSpeed="11.180000"/>
	<vehicle id="LS_25" type="car9" route="route1_4_1" depart="6" departLane = "1" departSpeed="11.180000"/>
	<vehicle id="SS_26" type="car5" route="route0_1_3" depart="7" departLane = "0" departSpeed="11.180000"/>
	<vehicle id="SX_27" type="car6" route="route0_2_4" depart="7" departLane = "2" departSpeed="11.180000"/>
	<vehicle id="SX_28" type="car9" route="route0_4_2" depart="7" departLane = "0" departSpeed="11.180000"/>
	<vehicle id="SX_29" type="car5" route="route1_2_4" depart="7" departLane = "0" departSpeed="11.180000"/>
	<vehicle id="SR_30" type="car8" route="route1_3_1" depart="7" departLane = "0" departSpeed="11.180000"/>
	<vehicle id="LS_31" type="car7" route="route1_4_1" depart="7" departLane = "0" departSpeed="11.180000"/>
	<vehicle id="SR_32" type="car5" route="route0_1_3" depart="8" departLane = "2" departSpeed="11.180000"/>
	<vehicle id="LS_33" type="car7" route="route0_2_3" depart="8" departLane = "2" departSpeed="11.180000"/>
	<vehicle id="SX_34" type="car7" route="route1_2_4" depart="8" departLane = "0" departSpeed="11.180000"/>
	<vehicle id="RX_35" type="car6" route="route1_3_2" depart="8" departLane = "1" departSpeed="11.180000"/>
	<vehicle id="SX_36" type="car6" route="route0_2_4" depart="9" departLane = "0" departSpeed="11.180000"/>
	<vehicle id="SX_37" type="car6" route="route0_4_2" depart="9" departLane = "0" departSpeed="11.180000"/>
	<vehicle id="LX_38" type="car9" route="route1_3_4" depart="9" departLane = "0" departSpeed="11.180000"/>
	<vehicle id="SX_39" type="car7" route="route1_4_2" depart="9" departLane = "2" departSpeed="11.180000"/>
	<vehicle id="LR_40" type="car8" route="route0_2_3" depart="10" departLane = "2" departSpeed="11.180000"/>
	<vehicle id="SX_41" type="car6" route="route0_4_2" depart="10" departLane = "0" departSpeed="11.180000"/>
	<vehicle id="RX_42" type="car8" route="route0_1_4" depart="11" departLane = "1" departSpeed="11.180000"/>
	<vehicle id="SX_43" type="car7" route="route0_2_4" depart="11" departLane = "2" departSpeed="11.180000"/>
	<vehicle id="RS_44" type="car6" route="route0_4_3" depart="11" departLane = "2" departSpeed="11.180000"/>
	<vehicle id="LS_45" type="car9" route="route1_4_1" depart="11" departLane = "2" departSpeed="11.180000"/>
	<vehicle id="RX_46" type="car9" route="route0_1_4" depart="12" departLane = "0" departSpeed="11.180000"/>
	<vehicle id="RX_47" type="car8" route="route0_2_1" depart="12" departLane = "2" departSpeed="11.180000"/>
	<vehicle id="SX_48" type="car8" route="route0_4_2" depart="12" departLane = "0" departSpeed="11.180000"/>
	<vehicle id="LX_49" type="car9" route="route1_2_3" depart="12" departLane = "2" departSpeed="11.180000"/>
	<vehicle id="SL_50" type="car9" route="route1_3_1" depart="12" departLane = "0" departSpeed="11.180000"/>
	<vehicle id="RX_51" type="car5" route="route1_4_3" depart="12" departLane = "2" departSpeed="11.180000"/>
	<vehicle id="RS_52" type="car6" route="route1_2_1" depart="13" departLane = "2" departSpeed="11.180000"/>
	<vehicle id="SL_53" type="car9" route="route1_3_1" depart="13" departLane = "0" departSpeed="11.180000"/>
	<vehicle id="SL_54" type="car5" route="route0_1_3" depart="14" departLane = "1" departSpeed="11.180000"/>
	<vehicle id="SX_55" type="car7" route="route0_2_4" depart="14" departLane = "1" departSpeed="11.180000"/>
	<vehicle id="SX_56" type="car6" route="route1_2_4" depart="14" departLane = "0" departSpeed="11.180000"/>
	<vehicle id="RX_57" type="car9" route="route1_4_3" depart="14" departLane = "0" departSpeed="11.180000"/>
	<vehicle id="LL_58" type="car6" route="route0_2_3" depart="15" departLane = "1" departSpeed="11.180000"/>
	<vehicle id="RS_59" type="car7" route="route1_2_1" depart="15" departLane = "0" departSpeed="11.180000"/>
	<vehicle id="SX_60" type="car8" route="route1_4_2" depart="15" departLane = "0" departSpeed="11.180000"/>
	<vehicle id="RX_61" type="car9" route="route0_2_1" depart="16" departLane = "1" departSpeed="11.180000"/>
	<vehicle id="SX_62" type="car5" route="route1_2_4" depart="16" departLane = "2" departSpeed="11.180000"/>
	<vehicle id="RX_63" type="car7" route="route1_3_2" depart="16" departLane = "2" departSpeed="11.180000"/>
	<vehicle id="SR_64" type="car5" route="route0_1_3" depart="17" departLane = "2" departSpeed="11.180000"/>
	<vehicle id="RX_65" type="car6" route="route0_2_1" depart="17" departLane = "1" departSpeed="11.180000"/>
	<vehicle id="LX_66" type="car8" route="route0_4_1" depart="17" departLane = "2" departSpeed="11.180000"/>
	<vehicle id="SX_67" type="car7" route="route1_2_4" depart="17" departLane = "0" departSpeed="11.180000"/>
	<vehicle id="RX_68" type="car7" route="route1_3_2" depart="17" departLane = "2" departSpeed="11.180000"/>
	<vehicle id="SX_69" type="car9" route="route1_4_2" depart="17" departLane = "0" departSpeed="11.180000"/>
	<vehicle id="LX_70" type="car9" route="route0_1_2" depart="18" departLane = "2" departSpeed="11.180000"/>
	<vehicle id="SX_71" type="car8" route="route0_2_4" depart="18" departLane = "2" departSpeed="11.180000"/>
	<vehicle id="SX_72" type="car7" route="route0_4_2" depart="18" departLane = "2" departSpeed="11.180000"/>
	<vehicle id="SS_73" type="car8" route="route1_3_1" depart="18" departLane = "2" departSpeed="11.180000"/>
	<vehicle id="LS_74" type="car5" route="route1_4_1" depart="18" departLane = "1" departSpeed="11.180000"/>
	<vehicle id="SX_75" type="car5" route="route0_2_4" depart="19" departLane = "1" departSpeed="11.180000"/>
	<vehicle id="RR_76" type="car9" route="route0_4_3" depart="19" departLane = "0" departSpeed="11.180000"/>
	<vehicle id="SX_77" type="car6" route="route1_2_4" depart="19" departLane = "2" departSpeed="11.180000"/>
	<vehicle id="LX_78" type="car8" route="route1_3_4" depart="19" departLane = "1" departSpeed="11.180000"/>
	<vehicle id="RX_79" type="car9" route="route1_4_3" depart="19" departLane = "1" departSpeed="11.180000"/>
	<vehicle id="RX_80" type="car6" route="route0_1_4" depart="20" departLane = "1" departSpeed="11.180000"/>
	<vehicle id="RX_81" type="car5" route="route0_2_1" depart="20" departLane = "0" departSpeed="11.180000"/>
	<vehicle id="SX_82" type="car7" route="route0_2_4" depart="21" departLane = "1" departSpeed="11.180000"/>
	<vehicle id="LX_83" type="car8" route="route0_4_1" depart="21" departLane = "2" departSpeed="11.180000"/>
	<vehicle id="SL_84" type="car8" route="route1_3_1" depart="21" departLane = "1" departSpeed="11.180000"/>
	<vehicle id="RX_85" type="car6" route="route0_1_4" depart="22" departLane = "2" departSpeed="11.180000"/>
	<vehicle id="RS_86" type="car9" route="route0_4_3" depart="22" departLane = "1" departSpeed="11.180000"/>
	<vehicle id="RX_87" type="car6" route="route1_3_2" depart="22" departLane = "0" departSpeed="11.180000"/>
	<vehicle id="LR_88" type="car9" route="route1_4_1" depart="22" departLane = "2" departSpeed="11.180000"/>
	<vehicle id="SR_89" type="car9" route="route0_1_3" depart="23" departLane = "1" departSpeed="11.180000"/>
	<vehicle id="RX_90" type="car5" route="route0_2_1" depart="23" departLane = "1" departSpeed="11.180000"/>
	<vehicle id="RR_91" type="car8" route="route0_4_3" depart="23" departLane = "1" departSpeed="11.180000"/>
	<vehicle id="LX_92" type="car9" route="route1_2_3" depart="23" departLane = "1" departSpeed="11.180000"/>
	<vehicle id="LX_93" type="car5" route="route1_3_4" depart="23" departLane = "0" departSpeed="11.180000"/>
	<vehicle id="SX_94" type="car5" route="route0_4_2" depart="24" departLane = "0" departSpeed="11.180000"/>
	<vehicle id="LX_95" type="car9" route="route1_2_3" depart="24" departLane = "0" departSpeed="11.180000"/>
	<vehicle id="SS_96" type="car6" route="route0_1_3" depart="25" departLane = "0" departSpeed="11.180000"/>
	<vehicle id="SX_97" type="car8" route="route0_4_2" depart="25" departLane = "2" departSpeed="11.180000"/>
	<vehicle id="SX_98" type="car6" route="route1_2_4" depart="25" departLane = "2" departSpeed="11.180000"/>
	<vehicle id="LX_99" type="car5" route="route1_3_4" depart="25" departLane = "0" departSpeed="11.180000"/>
	<vehicle id="RX_100" type="car5" route="route1_4_3" depart="25" departLane = "0" departSpeed="11.180000"/>
	<vehicle id="RX_101" type="car6" route="route0_1_4" depart="26" departLane = "2" departSpeed="11.180000"/>
	<vehicle id="LX_102" type="car9" route="route1_3_4" depart="26" departLane = "2" departSpeed="11.180000"/>
	<vehicle id="LX_103" type="car8" route="route0_1_2" depart="27" departLane = "2" departSpeed="11.180000"/>
	<vehicle id="SX_104" type="car5" route="route0_2_4" depart="27" departLane = "1" departSpeed="11.180000"/>
	<vehicle id="LX_105" type="car5" route="route1_2_3" depart="27" departLane = "0" departSpeed="11.180000"/>
	<vehicle id="SX_106" type="car8" route="route1_4_2" depart="27" departLane = "1" departSpeed="11.180000"/>
	<vehicle id="RX_107" type="car7" route="route0_2_1" depart="28" departLane = "1" departSpeed="11.180000"/>
	<vehicle id="SX_108" type="car5" route="route0_4_2" depart="28" departLane = "2" departSpeed="11.180000"/>
	<vehicle id="RX_109" type="car9" route="route1_3_2" depart="28" departLane = "0" departSpeed="11.180000"/>
	<vehicle id="RX_110" type="car7" route="route0_1_4" depart="29" departLane = "1" departSpeed="11.180000"/>
	<vehicle id="SX_111" type="car9" route="route0_4_2" depart="29" departLane = "2" departSpeed="11.180000"/>
	<vehicle id="LX_112" type="car9" route="route0_1_2" depart="30" departLane = "2" departSpeed="11.180000"/>
	<vehicle id="SX_113" type="car8" route="route0_2_4" depart="30" departLane = "0" departSpeed="11.180000"/>
	<vehicle id="RR_114" type="car9" route="route1_2_1" depart="30" departLane = "1" departSpeed="11.180000"/>
	<vehicle id="LX_115" type="car8" route="route1_3_4" depart="30" departLane = "0" departSpeed="11.180000"/>
	<vehicle id="LR_116" type="car8" route="route1_4_1" depart="30" departLane = "2" departSpeed="11.180000"/>
	<vehicle id="RX_117" type="car8" route="route0_1_4" depart="31" departLane = "2" departSpeed="11.180000"/>
	<vehicle id="LR_118" type="car9" route="route0_2_3" depart="31" departLane = "2" departSpeed="11.180000"/>
	<vehicle id="RX_119" type="car8" route="route1_3_2" depart="31" departLane = "2" departSpeed="11.180000"/>
	<vehicle id="RX_120" type="car6" route="route1_4_3" depart="31" departLane = "2" departSpeed="11.180000"/>
	<vehicle id="SS_121" type="car7" route="route0_1_3" depart="32" departLane = "2" departSpeed="11.180000"/>
	<vehicle id="SX_122" type="car6" route="route0_2_4" depart="32" departLane = "1" departSpeed="11.180000"/>
	<vehicle id="RL_123" type="car8" route="route0_4_3" depart="32" departLane = "0" departSpeed="11.180000"/>
	<vehicle id="LX_124" type="car9" route="route1_3_4" depart="32" departLane = "0" departSpeed="11.180000"/>
	<vehicle id="RX_125" type="car9" route="route0_1_4" depart="33" departLane = "0" departSpeed="11.180000"/>
	<vehicle id="RX_126" type="car5" route="route0_2_1" depart="33" departLane = "1" departSpeed="11.180000"/>
	<vehicle id="RR_127" type="car5" route="route1_2_1" depart="33" departLane = "1" departSpeed="11.180000"/>
	<vehicle id="LX_128" type="car8" route="route1_3_4" depart="33" departLane = "2" departSpeed="11.180000"/>
	<vehicle id="LX_129" type="car8" route="route0_1_2" depart="34" departLane = "1" departSpeed="11.180000"/>
	<vehicle id="SX_130" type="car9" route="route0_2_4" depart="34" departLane = "1" departSpeed="11.180000"/>
	<vehicle id="RX_131" type="car8" route="route1_3_2" depart="34" departLane = "2" departSpeed="11.180000"/>
	<vehicle id="RX_132" type="car5" route="route0_1_4" depart="35" departLane = "0" departSpeed="11.180000"/>
	<vehicle id="SX_133" type="car7" route="route1_2_4" depart="35" departLane = "2" departSpeed="11.180000"/>
	<vehicle id="RX_134" type="car6" route="route1_3_2" depart="35" departLane = "2" departSpeed="11.180000"/>
	<vehicle id="LL_135" type="car7" route="route1_4_1" depart="35" departLane = "0" departSpeed="11.180000"/>
	<vehicle id="LX_136" type="car6" route="route0_1_2" depart="36" departLane = "0" departSpeed="11.180000"/>
	<vehicle id="LX_137" type="car5" route="route0_4_1" depart="36" departLane = "2" departSpeed="11.180000"/>
	<vehicle id="LX_138" type="car6" route="route1_3_4" depart="36" departLane = "0" departSpeed="11.180000"/>
	<vehicle id="LX_139" type="car7" route="route0_1_2" depart="37" departLane = "2" departSpeed="11.180000"/>
	<vehicle id="SX_140" type="car7" route="route0_2_4" depart="37" departLane = "1" departSpeed="11.180000"/>
	<vehicle id="LX_141" type="car9" route="route1_2_3" depart="37" departLane = "0" departSpeed="11.180000"/>
	<vehicle id="SR_142" type="car6" route="route1_3_1" depart="37" departLane = "2" departSpeed="11.180000"/>
	<vehicle id="SX_143" type="car9" route="route1_4_2" depart="37" departLane = "1" departSpeed="11.180000"/>
	<vehicle id="SS_144" type="car5" route="route0_1_3" depart="38" departLane = "2" departSpeed="11.180000"/>
	<vehicle id="RR_145" type="car5" route="route0_4_3" depart="38" departLane = "2" departSpeed="11.180000"/>
	<vehicle id="RS_146" type="car6" route="route1_2_1" depart="38" departLane = "0" departSpeed="11.180000"/>
	<vehicle id="RX_147" type="car8" route="route1_3_2" depart="38" departLane = "2" departSpeed="11.180000"/>
	<vehicle id="LS_148" type="car5" route="route1_4_1" depart="38" departLane = "2" departSpeed="11.180000"/>
	<vehicle id="RX_149" type="car9" route="route0_1_4" depart="39" departLane = "2" departSpeed="11.180000"/>
	<vehicle id="SX_150" type="car5" route="route0_2_4" depart="39" departLane = "2" departSpeed="11.180000"/>
	<vehicle id="RX_151" type="car5" route="route1_3_2" depart="39" departLane = "2" departSpeed="11.180000"/>
	<vehicle id="RX_152" type="car7" route="route1_4_3" depart="39" departLane = "0" departSpeed="11.180000"/>
	<vehicle id="LX_153" type="car6" route="route0_1_2" depart="40" departLane = "1" departSpeed="11.180000"/>
	<vehicle id="LX_154" type="car6" route="route1_3_4" depart="40" departLane = "0" departSpeed="11.180000"/>
	<vehicle id="LR_155" type="car5" route="route1_4_1" depart="40" departLane = "1" departSpeed="11.180000"/>
	<vehicle id="SS_156" type="car6" route="route0_1_3" depart="41" departLane = "1" departSpeed="11.180000"/>
	<vehicle id="LX_157" type="car9" route="route1_2_3" depart="41" departLane = "1" departSpeed="11.180000"/>
	<vehicle id="LX_158" type="car5" route="route1_3_4" depart="41" departLane = "0" departSpeed="11.180000"/>
	<vehicle id="SX_159" type="car6" route="route0_4_2" depart="42" departLane = "0" departSpeed="11.180000"/>
	<vehicle id="LX_160" type="car6" route="route1_3_4" depart="42" departLane = "0" departSpeed="11.180000"/>
	<vehicle id="SX_161" type="car7" route="route1_4_2" depart="42" departLane = "1" departSpeed="11.180000"/>
	<vehicle id="LX_162" type="car8" route="route0_1_2" depart="43" departLane = "0" departSpeed="11.180000"/>
	<vehicle id="SX_163" type="car6" route="route0_4_2" depart="43" departLane = "0" departSpeed="11.180000"/>
	<vehicle id="RS_164" type="car7" route="route1_2_1" depart="43" departLane = "2" departSpeed="11.180000"/>
	<vehicle id="RX_165" type="car8" route="route1_4_3" depart="43" departLane = "0" departSpeed="11.180000"/>
	<vehicle id="LX_166" type="car8" route="route0_1_2" depart="44" departLane = "1" departSpeed="11.180000"/>
	<vehicle id="SX_167" type="car9" route="route0_2_4" depart="44" departLane = "1" departSpeed="11.180000"/>
	<vehicle id="SX_168" type="car5" route="route0_4_2" depart="44" departLane = "0" departSpeed="11.180000"/>
	<vehicle id="RR_169" type="car6" route="route1_2_1" depart="44" departLane = "1" departSpeed="11.180000"/>
	<vehicle id="SR_170" type="car6" route="route1_3_1" depart="44" departLane = "0" departSpeed="11.180000"/>
	<vehicle id="RX_171" type="car9" route="route1_4_3" depart="44" departLane = "1" departSpeed="11.180000"/>
	<vehicle id="RX_172" type="car7" route="route0_2_1" depart="45" departLane = "1" departSpeed="11.180000"/>
	<vehicle id="RR_173" type="car9" route="route0_4_3" depart="45" departLane = "1" departSpeed="11.180000"/>
	<vehicle id="SX_174" type="car5" route="route1_2_4" depart="45" departLane = "1" departSpeed="11.180000"/>
	<vehicle id="SX_175" type="car5" route="route1_4_2" depart="45" departLane = "2" departSpeed="11.180000"/>
	<vehicle id="LS_176" type="car9" route="route0_2_3" depart="46" departLane = "0" departSpeed="11.180000"/>
	<vehicle id="RS_177" type="car8" route="route1_2_1" depart="46" departLane = "2" departSpeed="11.180000"/>
	<vehicle id="LX_178" type="car6" route="route1_3_4" depart="46" departLane = "1" departSpeed="11.180000"/>
	<vehicle id="LL_179" type="car9" route="route1_4_1" depart="46" departLane = "1" departSpeed="11.180000"/>
	<vehicle id="LX_180" type="car6" route="route0_1_2" depart="47" departLane = "1" departSpeed="11.180000"/>
	<vehicle id="LS_181" type="car9" route="route0_2_3" depart="47" departLane = "2" departSpeed="11.180000"/>
	<vehicle id="LX_182" type="car5" route="route0_4_1" depart="47" departLane = "1" departSpeed="11.180000"/>
	<vehicle id="RS_183" type="car9" route="route1_2_1" depart="47" departLane = "2" departSpeed="11.180000"/>
	<vehicle id="SS_184" type="car5" route="route1_3_1" depart="47" departLane = "1" departSpeed="11.180000"/>
	<vehicle id="LL_185" type="car6" route="route1_4_1" depart="47" departLane = "2" departSpeed="11.180000"/>
	<vehicle id="LX_186" type="car9" route="route1_2_3" depart="48" departLane = "2" departSpeed="11.180000"/>
	<vehicle id="RX_187" type="car6" route="route1_4_3" depart="48" departLane = "0" departSpeed="11.180000"/>
	<vehicle id="LX_188" type="car5" route="route0_1_2" depart="49" departLane = "1" departSpeed="11.180000"/>
	<vehicle id="SX_189" type="car8" route="route0_2_4" depart="49" departLane = "2" departSpeed="11.180000"/>
	<vehicle id="RS_190" type="car8" route="route0_4_3" depart="49" departLane = "1" departSpeed="11.180000"/>
	<vehicle id="LX_191" type="car5" route="route1_2_3" depart="49" departLane = "1" departSpeed="11.180000"/>
	<vehicle id="RX_192" type="car6" route="route1_3_2" depart="49" departLane = "2" departSpeed="11.180000"/>
	<vehicle id="SX_193" type="car7" route="route1_4_2" depart="49" departLane = "0" departSpeed="11.180000"/>
	<vehicle id="LX_194" type="car5" route="route0_1_2" depart="50" departLane = "1" departSpeed="11.180000"/>
	<vehicle id="SX_195" type="car7" route="route0_4_2" depart="50" departLane = "2" departSpeed="11.180000"/>
	<vehicle id="SX_196" type="car6" route="route1_2_4" depart="50" departLane = "0" departSpeed="11.180000"/>
	<vehicle id="LS_197" type="car6" route="route1_4_1" depart="50" departLane = "1" departSpeed="11.180000"/>
	<vehicle id="SL_198" type="car7" route="route0_1_3" depart="51" departLane = "0" departSpeed="11.180000"/>
	<vehicle id="SX_199" type="car7" route="route0_2_4" depart="51" departLane = "1" departSpeed="11.180000"/>
	<vehicle id="LX_200" type="car9" route="route0_4_1" depart="51" departLane = "0" departSpeed="11.180000"/>
	<vehicle id="LX_201" type="car9" route="route1_2_3" depart="51" departLane = "2" departSpeed="11.180000"/>
	<vehicle id="SS_202" type="car6" route="route1_3_1" depart="51" departLane = "0" departSpeed="11.180000"/>
	<vehicle id="RX_203" type="car6" route="route1_4_3" depart="51" departLane = "0" departSpeed="11.180000"/>
	<vehicle id="LX_204" type="car6" route="route0_1_2" depart="52" departLane = "1" departSpeed="11.180000"/>
	<vehicle id="SX_205" type="car6" route="route0_2_4" depart="52" departLane = "1" departSpeed="11.180000"/>
	<vehicle id="RX_206" type="car5" route="route1_3_2" depart="52" departLane = "2" departSpeed="11.180000"/>
	<vehicle id="LS_207" type="car5" route="route1_4_1" depart="52" departLane = "2" departSpeed="11.180000"/>
	<vehicle id="RX_208" type="car5" route="route0_1_4" depart="53" departLane = "2" departSpeed="11.180000"/>
	<vehicle id="LS_209" type="car6" route="route0_2_3" depart="53" departLane = "1" departSpeed="11.180000"/>
	<vehicle id="SX_210" type="car6" route="route0_4_2" depart="53" departLane = "2" departSpeed="11.180000"/>
	<vehicle id="SX_211" type="car8" route="route1_2_4" depart="53" departLane = "1" departSpeed="11.180000"/>
	<vehicle id="RX_212" type="car8" route="route1_3_2" depart="53" departLane = "0" departSpeed="11.180000"/>
	<vehicle id="RX_213" type="car5" route="route1_4_3" depart="53" departLane = "0" departSpeed="11.180000"/>
	<vehicle id="RX_214" type="car7" route="route0_2_1" depart="54" departLane = "2" departSpeed="11.180000"/>
	<vehicle id="SX_215" type="car8" route="route1_2_4" depart="54" departLane = "1" departSpeed="11.180000"/>
	<vehicle id="LX_216" type="car8" route="route1_3_4" depart="54" departLane = "1" departSpeed="11.180000"/>
	<vehicle id="SX_217" type="car9" route="route1_4_2" depart="54" departLane = "1" departSpeed="11.180000"/>
	<vehicle id="SS_218" type="car6" route="route0_1_3" depart="55" departLane = "2" departSpeed="11.180000"/>
	<vehicle id="SX_219" type="car6" route="route0_2_4" depart="55" departLane = "1" departSpeed="11.180000"/>
	<vehicle id="RR_220" type="car5" route="route0_4_3" depart="55" departLane = "0" departSpeed="11.180000"/>
	<vehicle id="LX_221" type="car8" route="route1_2_3" depart="55" departLane = "2" departSpeed="11.180000"/>
	<vehicle id="RX_222" type="car9" route="route1_4_3" depart="55" departLane = "2" departSpeed="11.180000"/>
	<vehicle id="RX_223" type="car5" route="route0_1_4" depart="56" departLane = "2" departSpeed="11.180000"/>
	<vehicle id="LX_224" type="car9" route="route0_1_2" depart="57" departLane = "2" departSpeed="11.180000"/>
	<vehicle id="RX_225" type="car9" route="route0_2_1" depart="57" departLane = "1" departSpeed="11.180000"/>
	<vehicle id="SX_226" type="car5" route="route0_4_2" depart="57" departLane = "1" departSpeed="11.180000"/>
	<vehicle id="SS_227" type="car6" route="route1_3_1" depart="57" departLane = "2" departSpeed="11.180000"/>
	<vehicle id="LS_228" type="car9" route="route1_4_1" depart="57" departLane = "1" departSpeed="11.180000"/>
	<vehicle id="SL_229" type="car7" route="route0_1_3" depart="58" departLane = "1" departSpeed="11.180000"/>
	<vehicle id="RL_230" type="car5" route="route0_4_3" depart="58" departLane = "2" departSpeed="11.180000"/>
	<vehicle id="SX_231" type="car7" route="route1_2_4" depart="58" departLane = "2" departSpeed="11.180000"/>
	<vehicle id="RX_232" type="car6" route="route1_4_3" depart="58" departLane = "0" departSpeed="11.180000"/>
	<vehicle id="RX_233" type="car7" route="route0_1_4" depart="59" departLane = "2" departSpeed="11.180000"/>
	<vehicle id="LS_234" type="car8" route="route0_2_3" depart="59" departLane = "2" departSpeed="11.180000"/>
	<vehicle id="SL_235" type="car8" route="route0_1_3" depart="60" departLane = "1" departSpeed="11.180000"/>
	<vehicle id="RX_236" type="car8" route="route1_3_2" depart="60" departLane = "0" departSpeed="11.180000"/>
	<vehicle id="LL_237" type="car5" route="route1_4_1" depart="60" departLane = "1" departSpeed="11.180000"/>
	<vehicle id="RX_238" type="car9" route="route0_1_4" depart="61" departLane = "2" departSpeed="11.180000"/>
	<vehicle id="SX_239" type="car9" route="route0_2_4" depart="61" departLane = "0" departSpeed="11.180000"/>
	<vehicle id="LX_240" type="car9" route="route1_2_3" depart="61" departLane = "2" departSpeed="11.180000"/>
	<vehicle id="SR_241" type="car5" route="route1_3_1" depart="61" departLane = "0" departSpeed="11.180000"/>
	<vehicle id="LS_242" type="car8" route="route1_4_1" depart="61" departLane = "1" departSpeed="11.180000"/>
	<vehicle id="LX_243" type="car8" route="route0_1_2" depart="62" departLane = "0" departSpeed="11.180000"/>
	<vehicle id="SX_244" type="car5" route="route0_2_4" depart="62" departLane = "1" departSpeed="11.180000"/>
	<vehicle id="LX_245" type="car8" route="route0_4_1" depart="62" departLane = "0" departSpeed="11.180000"/>
	<vehicle id="SX_246" type="car7" route="route1_2_4" depart="62" departLane = "0" departSpeed="11.180000"/>
	<vehicle id="RX_247" type="car7" route="route1_3_2" depart="62" departLane = "1" departSpeed="11.180000"/>
	<vehicle id="LL_248" type="car5" route="route0_2_3" depart="63" departLane = "1" departSpeed="11.180000"/>
	<vehicle id="RR_249" type="car9" route="route0_4_3" depart="63" departLane = "0" departSpeed="11.180000"/>
	<vehicle id="SX_250" type="car9" route="route1_2_4" depart="63" departLane = "2" departSpeed="11.180000"/>
	<vehicle id="RX_251" type="car6" route="route1_3_2" depart="63" departLane = "0" departSpeed="11.180000"/>
	<vehicle id="RX_252" type="car5" route="route1_4_3" depart="63" departLane = "1" departSpeed="11.180000"/>
	<vehicle id="RX_253" type="car9" route="route0_2_1" depart="64" departLane = "2" departSpeed="11.180000"/>
	<vehicle id="RX_254" type="car9" route="route1_4_3" depart="64" departLane = "2" departSpeed="11.180000"/>
	<vehicle id="LX_255" type="car5" route="route0_1_2" depart="65" departLane = "0" departSpeed="11.180000"/>
	<vehicle id="RX_256" type="car7" route="route0_2_1" depart="65" departLane = "2" departSpeed="11.180000"/>
	<vehicle id="SX_257" type="car6" route="route1_2_4" depart="65" departLane = "1" departSpeed="11.180000"/>
	<vehicle id="LX_258" type="car5" route="route1_3_4" depart="65" departLane = "0" departSpeed="11.180000"/>
	<vehicle id="SX_259" type="car9" route="route1_4_2" depart="65" departLane = "1" departSpeed="11.180000"/>
	<vehicle id="RX_260" type="car9" route="route0_1_4" depart="66" departLane = "2" departSpeed="11.180000"/>