<routes>

	<vType id="car5" accel="1000.0" decel="1000.0" sigma="0.0" length="5" minGap="3.000000" maxSpeed="11.180000" tau="0.050000" carFollowModel="CACC" color="255,255,255"/>
	<vType id="car6" accel="1000.0" decel="1000.0" sigma="0.0" length="6" minGap="3.000000" maxSpeed="11.180000" tau="0.050000" carFollowModel="CACC" color="255,255,255"/>
	<vType id="car7" accel="1000.0" decel="1000.0" sigma="0.0" length="7" minGap="3.000000" maxSpeed="11.180000" tau="0.050000" carFollowModel="CACC" color="255,255,255"/>
	<vType id="car8" accel="1000.0" decel="1000.0" sigma="0.0" length="8" minGap="3.000000" maxSpeed="11.180000" tau="0.050000" carFollowModel="CACC" color="255,255,255"/>
	<vType id="car9" accel="1000.0" decel="1000.0" sigma="0.0" length="9" minGap="3.000000" maxSpeed="11.180000" tau="0.050000" carFollowModel="CACC" color="255,255,255"/>

	<route id="route1_2" edges=" 1 -2"/>
	<route id="route1_3" edges=" 1 -3"/>
	<route id="route1_4" edges=" 1 -4"/>
	<route id="route2_1" edges=" 2 -1"/>
	<route id="route2_3" edges=" 2 -3"/>
	<route id="route2_4" edges=" 2 -4"/>
	<route id="route3_1" edges=" 3 -1"/>
	<route id="route3_2" edges=" 3 -2"/>
	<route id="route3_4" edges=" 3 -4"/>
	<route id="route4_1" edges=" 4 -1"/>
	<route id="route4_2" edges=" 4 -2"/>
	<route id="route4_3" edges=" 4 -3"/>

	<vehicle id="R_0" type="car8" route="route1_4" depart="0" departLane = "0" departSpeed="11.180000"/>
	<vehicle id="S_1" type="car8" route="route3_1" depart="0" departLane = "0" departSpeed="11.180000"/>
	<vehicle id="R_2" type="car6" route="route1_4" depart="1" departLane = "0" departSpeed="11.180000"/>
	<vehicle id="R_3" type="car7" route="route2_1" depart="2" departLane = "0" departSpeed="11.180000"/>
	<vehicle id="R_4" type="car7" route="route4_3" depart="2" departLane = "1" departSpeed="11.180000"/>
	<vehicle id="L_5" type="car7" route="route1_2" depart="4" departLane = "2" departSpeed="11.180000"/>
	<vehicle id="R_6" type="car7" route="route4_3" depart="4" departLane = "1" departSpeed="11.180000"/>
	<vehicle id="L_7" type="car7" route="route1_2" depart="5" departLane = "2" departSpeed="11.180000"/>
	<vehicle id="L_8" type="car9" route="route2_3" depart="5" departLane = "1" departSpeed="11.180000"/>
	<vehicle id="S_9" type="car6" route="route4_2" depart="5" departLane = "2" departSpeed="11.180000"/>
	<vehicle id="R_10" type="car7" route="route4_3" depart="6" departLane = "1" departSpeed="11.180000"/>
	<vehicle id="L_11" type="car8" route="route2_3" depart="7" departLane = "0" departSpeed="11.180000"/>
	<vehicle id="R_12" type="car8" route="route4_3" depart="7" departLane = "2" departSpeed="11.180000"/>
	<vehicle id="R_13" type="car6" route="route2_1" depart="8" departLane = "2" departSpeed="11.180000"/>
	<vehicle id="L_14" type="car8" route="route3_4" depart="8" departLane = "0" departSpeed="11.180000"/>
	<vehicle id="S_15" type="car8" route="route4_2" depart="8" departLane = "1" departSpeed="11.180000"/>
	<vehicle id="L_16" type="car6" route="route2_3" depart="9" departLane = "2" departSpeed="11.180000"/>
	<vehicle id="S_17" type="car6" route="route4_2" depart="9" departLane = "0" departSpeed="11.180000"/>
	<vehicle id="L_18" type="car9" route="route1_2" depart="10" departLane = "2" departSpeed="11.180000"/>
	<vehicle id="R_19" type="car7" route="route3_2" depart="10" departLane = "0" departSpeed="11.180000"/>
	<vehicle id="S_20" type="car5" route="route1_3" depart="11" departLane = "2" departSpeed="11.180000"/>
	<vehicle id="R_21" type="car7" route="route2_1" depart="12" departLane = "1" departSpeed="11.180000"/>
	<vehicle id="R_22" type="car8" route="route1_4" depart="14" departLane = "0" departSpeed="11.180000"/>
	<vehicle id="R_23" type="car8" route="route2_1" depart="14" departLane = "1" departSpeed="11.180000"/>
	<vehicle id="L_24" type="car5" route="route4_1" depart="14" departLane = "2" departSpeed="11.180000"/>
	<vehicle id="L_25" type="car5" route="route4_1" depart="16" departLane = "0" departSpeed="11.180000"/>
	<vehicle id="S_26" type="car6" route="route1_3" depart="17" departLane = "0" departSpeed="11.180000"/>
	<vehicle id="L_27" type="car5" route="route3_4" depart="18" departLane = "0" departSpeed="11.180000"/>
	<vehicle id="R_28" type="car6" route="route1_4" depart="19" departLane = "1" departSpeed="11.180000"/>
	<vehicle id="S_29" type="car8" route="route3_1" depart="19" departLane = "1" departSpeed="11.180000"/>
	<vehicle id="S_30" type="car8" route="route4_2" depart="19" departLane = "1" departSpeed="11.180000"/>
	<vehicle id="R_31" type="car6" route="route1_4" depart="20" departLane = "1" departSpeed="11.180000"/>
	<vehicle id="S_32" type="car7" route="route3_1" depart="20" departLane = "1" departSpeed="11.180000"/>
	<vehicle id="L_33" type="car6" route="route4_1" depart="20" departLane = "0" departSpeed="11.180000"/>
	<vehicle id="L_34" type="car5" route="route2_3" depart="21" departLane = "1" departSpeed="11.180000"/>
	<vehicle id="S_35" type="car9" route="route4_2" depart="21" departLane = "0" departSpeed="11.180000"/>
	<vehicle id="S_36" type="car9" route="route3_1" depart="23" departLane = "0" departSpeed="11.180000"/>
	<vehicle id="S_37" type="car8" route="route2_4" depart="24" departLane = "2" departSpeed="11.180000"/>
	<vehicle id="S_38" type="car8" route="route1_3" depart="26" departLane = "1" departSpeed="11.180000"/>
	<vehicle id="S_39" type="car6" route="route2_4" depart="26" departLane = "1" departSpeed="11.180000"/>
	<vehicle id="S_40" type="car6" route="route3_1" depart="26" departLane = "2" departSpeed="11.180000"/>
	<vehicle id="S_41" type="car6" route="route1_3" depart="27" departLane = "0" departSpeed="11.180000"/>
	<vehicle id="R_42" type="car5" route="route4_3" depart="28" departLane = "0" departSpeed="11.180000"/>
	<vehicle id="L_43" type="car8" route="route2_3" depart="29" departLane = "1" departSpeed="11.180000"/>
	<vehicle id="S_44" type="car9" route="route2_4" depart="30" departLane = "2" departSpeed="11.180000"/>
	<vehicle id="S_45" type="car8" route="route3_1" depart="30" departLane = "2" departSpeed="11.180000"/>
	<vehicle id="R_46" type="car9" route="route2_1" depart="31" departLane = "2" departSpeed="11.180000"/>
	<vehicle id="L_47" type="car7" route="route3_4" depart="31" departLane = "2" departSpeed="11.180000"/>
	<vehicle id="S_48" type="car5" route="route1_3" depart="32" departLane = "1" departSpeed="11.180000"/>
	<vehicle id="S_49" type="car5" route="route4_2" depart="32" departLane = "1" departSpeed="11.180000"/>
	<vehicle id="R_50" type="car8" route="route1_4" depart="33" departLane = "2" departSpeed="11.180000"/>
	<vehicle id="S_51" type="car8" route="route4_2" depart="33" departLane = "0" departSpeed="11.180000"/>
	<vehicle id="S_52" type="car7" route="route3_1" depart="34" departLane = "2" departSpeed="11.180000"/>
	<vehicle id="L_53" type="car7" route="route4_1" depart="35" departLane = "0" departSpeed="11.180000"/>
	<vehicle id="S_54" type="car6" route="route3_1" depart="36" departLane = "2" departSpeed="11.180000"/>
	<vehicle id="L_55" type="car6" route="route1_2" depart="37" departLane = "2" departSpeed="11.180000"/>
	<vehicle id="R_56" type="car7" route="route2_1" depart="37" departLane = "1" departSpeed="11.180000"/>
	<vehicle id="S_57" type="car5" route="route2_4" depart="38" departLane = "1" departSpeed="11.180000"/>
	<vehicle id="R_58" type="car8" route="route3_2" depart="39" departLane = "0" departSpeed="11.180000"/>
	<vehicle id="S_59" type="car9" route="route3_1" depart="41" departLane = "1" departSpeed="11.180000"/>
	<vehicle id="R_60" type="car8" route="route4_3" depart="41" departLane = "2" departSpeed="11.180000"/>
	<vehicle id="S_61" type="car7" route="route3_1" depart="42" departLane = "2" departSpeed="11.180000"/>
	<vehicle id="L_62" type="car5" route="route1_2" depart="43" departLane = "1" departSpeed="11.180000"/>
	<vehicle id="S_63" type="car6" route="route1_3" depart="44" departLane = "1" departSpeed="11.180000"/>
	<vehicle id="R_64" type="car6" route="route1_4" depart="45" departLane = "1" departSpeed="11.180000"/>
	<vehicle id="R_65" type="car7" route="route2_1" depart="45" departLane = "1" departSpeed="11.180000"/>
	<vehicle id="S_66" type="car9" route="route3_1" depart="45" departLane = "0" departSpeed="11.180000"/>
	<vehicle id="L_67" type="car7" route="route4_1" depart="45" departLane = "0" departSpeed="11.180000"/>
	<vehicle id="S_68" type="car8" route="route3_1" depart="46" departLane = "2" departSpeed="11.180000"/>
	<vehicle id="L_69" type="car6" route="route2_3" depart="47" departLane = "0" departSpeed="11.180000"/>
	<vehicle id="R_70" type="car8" route="route4_3" depart="48" departLane = "2" departSpeed="11.180000"/>
	<vehicle id="R_71" type="car6" route="route2_1" depart="49" departLane = "1" departSpeed="11.180000"/>
	<vehicle id="S_72" type="car7" route="route3_1" depart="49" departLane = "0" departSpeed="11.180000"/>
	<vehicle id="S_73" type="car8" route="route2_4" depart="51" departLane = "1" departSpeed="11.180000"/>
	<vehicle id="L_74" type="car8" route="route4_1" depart="51" departLane = "2" departSpeed="11.180000"/>
	<vehicle id="S_75" type="car8" route="route2_4" depart="53" departLane = "0" departSpeed="11.180000"/>
	<vehicle id="L_76" type="car7" route="route3_4" depart="54" departLane = "0" departSpeed="11.180000"/>
	<vehicle id="S_77" type="car5" route="route4_2" depart="55" departLane = "0" departSpeed="11.180000"/>
	<vehicle id="S_78" type="car6" route="route1_3" depart="56" departLane = "0" departSpeed="11.180000"/>
	<vehicle id="R_79" type="car6" route="route3_2" depart="57" departLane = "0" departSpeed="11.180000"/>
	<vehicle id="L_80" type="car5" route="route1_2" depart="58" departLane = "1" departSpeed="11.180000"/>
	<vehicle id="L_81" type="car7" route="route2_3" depart="58" departLane = "0" departSpeed="11.180000"/>
	<vehicle id="R_82" type="car8" route="route1_4" depart="59" departLane = "0" departSpeed="11.180000"/>
	<vehicle id="S_83" type="car8" route="route2_4" depart="61" departLane = "1" departSpeed="11.180000"/>
	<vehicle id="S_84" type="car9" route="route1_3" depart="62" departLane = "1" departSpeed="11.180000"/>
	<vehicle id="R_85" type="car5" route="route1_4" depart="63" departLane = "1" departSpeed="11.180000"/>
	<vehicle id="S_86" type="car5" route="route3_1" depart="63" departLane = "2" departSpeed="11.180000"/>
	<vehicle id="R_87" type="car5" route="route4_3" depart="63" departLane = "0" departSpeed="11.180000"/>
	<vehicle id="S_88" type="car5" route="route1_3" depart="64" departLane = "2" departSpeed="11.180000"/>
	<vehicle id="R_89" type="car5" route="route2_1" depart="64" departLane = "2" departSpeed="11.180000"/>
	<vehicle id="R_90" type="car8" route="route1_4" depart="65" departLane = "1" departSpeed="11.180000"/>
	<vehicle id="L_91" type="car9" route="route2_3" depart="65" departLane = "0" departSpeed="11.180000"/>
	<vehicle id="S_92" type="car7" route="route4_2" depart="65" departLane = "2" departSpeed="11.180000"/>
	<vehicle id="R_93" type="car8" route="route1_4" depart="66" departLane = "2" departSpeed="11.180000"/>
	<vehicle id="S_94" type="car6" route="route3_1" depart="66" departLane = "2" departSpeed="11.180000"/>
	<vehicle id="L_95" type="car9" route="route4_1" depart="66" departLane = "2" departSpeed="11.180000"/>
	<vehicle id="S_96" type="car7" route="route1_3" depart="67" departLane = "1" departSpeed="11.180000"/>
	<vehicle id="S_97" type="car7" route="route3_1" depart="67" departLane = "0" departSpeed="11.180000"/>
	<vehicle id="S_98" type="car5" route="route3_1" depart="69" departLane = "2" departSpeed="11.180000"/>
	<vehicle id="S_99" type="car5" route="route3_1" depart="70" departLane = "0" departSpeed="11.180000"/>
	<vehicle id="L_100" type="car6" route="route4_1" depart="70" departLane = "2" departSpeed="11.180000"/>
	<vehicle id="S_101" type="car5" route="route2_4" depart="71" departLane = "2" departSpeed="11.180000"/>
	<vehicle id="S_102" type="car9" route="route3_1" depart="71" departLane = "0" departSpeed="11.180000"/>
	<vehicle id="R_103" type="car5" route="route4_3" depart="71" departLane = "0" departSpeed="11.180000"/>
	<vehicle id="R_104" type="car6" route="route1_4" depart="72" departLane = "2" departSpeed="11.180000"/>
	<vehicle id="S_105" type="car7" route="route2_4" depart="72" departLane = "0" departSpeed="11.180000"/>
	<vehicle id="L_106" type="car9" route="route4_1" depart="72" departLane = "1" departSpeed="11.180000"/>
	<vehicle id="R_107" type="car5" route="route2_1" depart="73" departLane = "1" departSpeed="11.180000"/>
	<vehicle id="R_108" type="car7" route="route1_4" depart="74" departLane = "2" departSpeed="11.180000"/>
	<vehicle id="R_109" type="car8" route="route1_4" depart="75" departLane = "0" departSpeed="11.180000"/>
	<vehicle id="S_110" type="car8" route="route4_2" depart="75" departLane = "1" departSpeed="11.180000"/>
	<vehicle id="L_111" type="car6" route="route1_2" depart="76" departLane = "2" departSpeed="11.180000"/>
	<vehicle id="S_112" type="car5" route="route2_4" depart="76" departLane = "2" departSpeed="11.180000"/>
	<vehicle id="L_113" type="car9" route="route3_4" depart="76" departLane = "1" departSpeed="11.180000"/>
	<vehicle id="R_114" type="car6" route="route4_3" depart="76" departLane = "2" departSpeed="11.180000"/>
	<vehicle id="R_115" type="car9" route="route2_1" depart="77" departLane = "0" departSpeed="11.180000"/>
	<vehicle id="S_116" type="car7" route="route3_1" depart="77" departLane = "0" departSpeed="11.180000"/>
	<vehicle id="R_117" type="car5" route="route3_2" depart="78" departLane = "1" departSpeed="11.180000"/>
	<vehicle id="L_118" type="car9" route="route2_3" depart="79" departLane = "0" departSpeed="11.180000"/>
	<vehicle id="R_119" type="car7" route="route4_3" depart="79" departLane = "1" departSpeed="11.180000"/>
	<vehicle id="S_120" type="car5" route="route3_1" depart="80" departLane = "2" departSpeed="11.180000"/>
	<vehicle id="R_121" type="car7" route="route3_2" depart="82" departLane = "2" departSpeed="11.180000"/>
	<vehicle id="R_122" type="car5" route="route1_4" depart="84" departLane = "0" departSpeed="11.180000"/>
	<vehicle id="R_123" type="car8" route="route2_1" depart="85" departLane = "1" departSpeed="11.180000"/>
	<vehicle id="R_124" type="car6" route="route3_2" depart="85" departLane = "0" departSpeed="11.180000"/>
	<vehicle id="L_125" type="car8" route="route3_4" depart="86" departLane = "1" departSpeed="11.180000"/>
	<vehicle id="L_126" type="car7" route="route2_3" depart="87" departLane = "0" departSpeed="11.180000"/>
	<vehicle id="S_127" type="car7" route="route3_1" depart="87" departLane = "0" departSpeed="11.180000"/>
	<vehicle id="L_128" type="car7" route="route1_2" depart="88" departLane = "2" departSpeed="11.180000"/>
	<vehicle id="S_129" type="car6" route="route4_2" depart="88" departLane = "0" departSpeed="11.180000"/>
	<vehicle id="S_130" type="car6" route="route2_4" depart="89" departLane = "2" departSpeed="11.180000"/>
	<vehicle id="S_131" type="car6" route="route3_1" depart="89" departLane = "0" departSpeed="11.180000"/>
	<vehicle id="S_132" type="car7" route="route4_2" depart="89" departLane = "2" departSpeed="11.180000"/>
	<vehicle id="L_133" type="car8" route="route3_4" depart="90" departLane = "1" departSpeed="11.180000"/>
	<vehicle id="R_134" type="car9" route="route4_3" depart="90" departLane = "1" departSpeed="11.180000"/>
	<vehicle id="R_135" type="car8" route="route4_3" depart="91" departLane = "0" departSpeed="11.180000"/>
	<vehicle id="L_136" type="car7" route="route1_2" depart="92" departLane = "1" departSpeed="11.180000"/>
	<vehicle id="L_137" type="car8" route="route3_4" depart="92" departLane = "0" departSpeed="11.180000"/>
	<vehicle id="S_138" type="car9" route="route4_2" depart="92" departLane = "2" departSpeed="11.180000"/>
	<vehicle id="L_139" type="car6" route="route1_2" depart="93" departLane = "2" departSpeed="11.180000"/>
	<vehicle id="S_140" type="car6" route="route1_3" depart="94" departLane = "1" departSpeed="11.180000"/>
	<vehicle id="R_141" type="car6" route="route3_2" depart="94" departLane = "0" departSpeed="11.180000"/>
	<vehicle id="S_142" type="car6" route="route4_2" depart="94" departLane = "1" departSpeed="11.180000"/>
	<vehicle id="R_143" type="car7" route="route2_1" depart="95" departLane = "2" departSpeed="11.180000"/>
	<vehicle id="R_144" type="car9" route="route3_2" depart="95" departLane = "1" departSpeed="11.180000"/>
	<vehicle id="S_145" type="car7" route="route2_4" depart="96" departLane = "2" departSpeed="11.180000"/>
	<vehicle id="L_146" type="car7" route="route4_1" depart="96" departLane = "0" departSpeed="11.180000"/>
	<vehicle id="S_147" type="car9" route="route1_3" depart="98" departLane = "2" departSpeed="11.180000"/>
	<vehicle id="R_148" type="car6" route="route2_1" depart="98" departLane = "0" departSpeed="11.180000"/>
	<vehicle id="R_149" type="car9" route="route4_3" depart="98" departLane = "0" departSpeed="11.180000"/>
	<vehicle id="L_150" type="car9" route="route3_4" depart="99" departLane = "0" departSpeed="11.180000"/>
	<vehicle id="L_151" type="car7" route="route4_1" depart="99" departLane = "0" departSpeed="11.180000"/>
	<vehicle id="R_152" type="car6" route="route2_1" depart="100" departLane = "1" departSpeed="11.180000"/>
	<vehicle id="R_153" type="car7" route="route3_2" depart="101" departLane = "0" departSpeed="11.180000"/>
	<vehicle id="L_154" type="car9" route="route1_2" depart="102" departLane = "1" departSpeed="11.180000"/>
	<vehicle id="R_155" type="car5" route="route1_4" depart="103" departLane = "2" departSpeed="11.180000"/>
	<vehicle id="R_156" type="car6" route="route4_3" depart="103" departLane = "0" departSpeed="11.180000"/>
	<vehicle id="R_157" type="car5" route="route2_1" depart="104" departLane = "2" departSpeed="11.180000"/>
	<vehicle id="S_158" type="car7" route="route4_2" depart="104" departLane = "0" departSpeed="11.180000"/>
	<vehicle id="S_159" type="car7" route="route3_1" depart="105" departLane = "2" departSpeed="11.180000"/>
	<vehicle id="S_160" type="car6" route="route1_3" depart="107" departLane = "1" departSpeed="11.180000"/>
	<vehicle id="R_161" type="car5" route="route3_2" depart="108" departLane = "2" departSpeed="11.180000"/>
	<vehicle id="L_162" type="car7" route="route3_4" depart="109" departLane = "0" departSpeed="11.180000"/>
	<vehicle id="L_163" type="car6" route="route2_3" depart="110" departLane = "1" departSpeed="11.180000"/>
	<vehicle id="R_164" type="car8" route="route1_4" depart="111" departLane = "2" departSpeed="11.180000"/>
	<vehicle id="R_165" type="car9" route="route2_1" depart="111" departLane = "1" departSpeed="11.180000"/>
	<vehicle id="R_166" type="car9" route="route2_1" depart="112" departLane = "2" departSpeed="11.180000"/>
	<vehicle id="R_167" type="car6" route="route2_1" depart="113" departLane = "1" departSpeed="11.180000"/>
	<vehicle id="L_168" type="car7" route="route3_4" depart="113" departLane = "1" departSpeed="11.180000"/>
	<vehicle id="L_169" type="car6" route="route3_4" depart="114" departLane = "2" departSpeed="11.180000"/>
	<vehicle id="S_170" type="car7" route="route4_2" depart="114" departLane = "0" departSpeed="11.180000"/>
	<vehicle id="R_171" type="car5" route="route2_1" depart="115" departLane = "1" departSpeed="11.180000"/>
	<vehicle id="R_172" type="car5" route="route4_3" depart="115" departLane = "2" departSpeed="11.180000"/>
	<vehicle id="S_173" type="car9" route="route1_3" depart="116" departLane = "0" departSpeed="11.180000"/>
	<vehicle id="R_174" type="car7" route="route2_1" depart="116" departLane = "0" departSpeed="11.180000"/>
	<vehicle id="L_175" type="car8" route="route1_2" depart="117" departLane = "1" departSpeed="11.180000"/>
	<vehicle id="L_176" type="car7" route="route2_3" depart="117" departLane = "0" departSpeed="11.180000"/>
	<vehicle id="L_177" type="car8" route="route4_1" depart="117" departLane = "0" departSpeed="11.180000"/>
	<vehicle id="L_178" type="car8" route="route1_2" depart="118" departLane = "0" departSpeed="11.180000"/>
	<vehicle id="L_179" type="car7" route="route3_4" depart="118" departLane = "0" departSpeed="11.180000"/>
	<vehicle id="L_180" type="car6" route="route4_1" depart="118" departLane = "1" departSpeed="11.180000"/>
	<vehicle id="S_181" type="car5" route="route1_3" depart="119" departLane = "1" departSpeed="11.180000"/>
	<vehicle id="L_182" type="car9" route="route1_2" depart="121" departLane = "1" departSpeed="11.180000"/>
	<vehicle id="S_183" type="car5" route="route2_4" depart="121" departLane = "0" departSpeed="11.180000"/>
	<vehicle id="R_184" type="car6" route="route3_2" depart="121" departLane = "0" departSpeed="11.180000"/>
	<vehicle id="S_185" type="car7" route="route4_2" depart="122" departLane = "2" departSpeed="11.180000"/>
	<vehicle id="S_186" type="car8" route="route4_2" depart="123" departLane = "1" departSpeed="11.180000"/>
	<vehicle id="S_187" type="car9" route="route2_4" depart="126" departLane = "1" departSpeed="11.180000"/>
	<vehicle id="R_188" type="car6" route="route3_2" depart="126" departLane = "2" departSpeed="11.180000"/>
	<vehicle id="R_189" type="car7" route="route2_1" depart="127" departLane = "2" departSpeed="11.180000"/>
	<vehicle id="R_190" type="car7" route="route2_1" depart="130" departLane = "1" departSpeed="11.180000"/>
	<vehicle id="S_191" type="car9" route="route3_1" depart="130" departLane = "2" departSpeed="11.180000"/>
	<vehicle id="R_192" type="car8" route="route4_3" depart="131" departLane = "1" departSpeed="11.180000"/>
	<vehicle id="L_193" type="car5" route="route2_3" depart="132" departLane = "2" departSpeed="11.180000"/>
	<vehicle id="S_194" type="car6" route="route1_3" depart="133" departLane = "2" departSpeed="11.180000"/>
	<vehicle id="R_195" type="car6" route="route4_3" depart="134" departLane = "0" departSpeed="11.180000"/>
	<vehicle id="S_196" type="car8" route="route2_4" depart="135" departLane = "1" departSpeed="11.180000"/>
	<vehicle id="R_197" type="car5" route="route4_3" depart="135" departLane = "0" departSpeed="11.180000"/>
	<vehicle id="R_198" type="car6" route="route1_4" depart="136" departLane = "0" departSpeed="11.180000"/>
	<vehicle id="L_199" type="car5" route="route2_3" depart="136" departLane = "2" departSpeed="11.180000"/>
	<vehicle id="L_200" type="car5" route="route4_1" depart="136" departLane = "0" departSpeed="11.180000"/>
	<vehicle id="L_201" type="car9" route="route3_4" depart="137" departLane = "0" departSpeed="11.180000"/>
	<vehicle id="R_202" type="car8" route="route1_4" depart="138" departLane = "2" departSpeed="11.180000"/>
	<vehicle id="S_203" type="car5" route="route1_3" depart="139" departLane = "2" departSpeed="11.180000"/>
	<vehicle id="S_204" type="car7" route="route3_1" depart="139" departLane = "0" departSpeed="11.180000"/>
	<vehicle id="L_205" type="car5" route="route1_2" depart="140" departLane = "1" departSpeed="11.180000"/>
	<vehicle id="L_206" type="car5" route="route2_3" depart="140" departLane = "0" departSpeed="11.180000"/>
	<vehicle id="S_207" type="car5" route="route1_3" depart="141" departLane = "2" departSpeed="11.180000"/>
	<vehicle id="L_208" type="car5" route="route1_2" depart="143" departLane = "0" departSpeed="11.180000"/>
	<vehicle id="S_209" type="car9" route="route2_4" depart="143" departLane = "1" departSpeed="11.180000"/>
	<vehicle id="L_210" type="car7" route="route4_1" depart="144" departLane = "2" departSpeed="11.180000"/>
	<vehicle id="S_211" type="car7" route="route1_3" depart="145" departLane = "0" departSpeed="11.180000"/>
	<vehicle id="R_212" type="car5" route="route1_4" depart="146" departLane = "2" departSpeed="11.180000"/>
	<vehicle id="S_213" type="car6" route="route2_4" depart="146" departLane = "0" departSpeed="11.180000"/>
	<vehicle id="R_214" type="car9" route="route4_3" depart="147" departLane = "0" departSpeed="11.180000"/>
	<vehicle id="L_215" type="car8" route="route3_4" depart="148" departLane = "2" departSpeed="11.180000"/>
	<vehicle id="S_216" type="car6" route="route2_4" depart="149" departLane = "1" departSpeed="11.180000"/>
	<vehicle id="S_217" type="car9" route="route4_2" depart="149" departLane = "1" departSpeed="11.180000"/>
	<vehicle id="R_218" type="car8" route="route3_2" depart="150" departLane = "0" departSpeed="11.180000"/>
	<vehicle id="R_219" type="car7" route="route1_4" depart="153" departLane = "0" departSpeed="11.180000"/>
	<vehicle id="S_220" type="car8" route="route4_2" depart="153" departLane = "2" departSpeed="11.180000"/>
	<vehicle id="R_221" type="car6" route="route2_1" depart="154" departLane = "2" departSpeed="11.180000"/>
	<vehicle id="R_222" type="car8" route="route3_2" depart="156" departLane = "1" departSpeed="11.180000"/>
	<vehicle id="R_223" type="car5" route="route4_3" depart="156" departLane = "0" departSpeed="11.180000"/>
	<vehicle id="R_224" type="car9" route="route2_1" depart="157" departLane = "1" departSpeed="11.180000"/>
	<vehicle id="R_225" type="car9" route="route2_1" depart="158" departLane = "1" departSpeed="11.180000"/>
	<vehicle id="S_226" type="car9" route="route3_1" depart="158" departLane = "1" departSpeed="11.180000"/>
	<vehicle id="S_227" type="car9" route="route4_2" depart="158" departLane = "1" departSpeed="11.180000"/>
	<vehicle id="L_228" type="car6" route="route4_1" depart="159" departLane = "0" departSpeed="11.180000"/>
	<vehicle id="S_229" type="car8" route="route2_4" depart="160" departLane = "1" departSpeed="11.180000"/>
	<vehicle id="R_230" type="car7" route="route3_2" depart="160" departLane = "1" departSpeed="11.180000"/>
	<vehicle id="S_231" type="car9" route="route2_4" depart="161" departLane = "2" departSpeed="11.180000"/>
	<vehicle id="L_232" type="car6" route="route3_4" depart="161" departLane = "2" departSpeed="11.180000"/>
	<vehicle id="L_233" type="car6" route="route3_4" depart="162" departLane = "0" departSpeed="11.180000"/>
	<vehicle id="L_234" type="car7" route="route4_1" depart="163" departLane = "1" departSpeed="11.180000"/>
	<vehicle id="L_235" type="car6" route="route2_3" depart="164" departLane = "2" departSpeed="11.180000"/>
	<vehicle id="L_236" type="car7" route="route3_4" depart="164" departLane = "1" departSpeed="11.180000"/>
	<vehicle id="S_237" type="car6" route="route2_4" depart="166" departLane = "0" departSpeed="11.180000"/>
	<vehicle id="L_238" type="car6" route="route3_4" depart="166" departLane = "2" departSpeed="11.180000"/>
	<vehicle id="R_239" type="car9" route="route4_3" depart="166" departLane = "2" departSpeed="11.180000"/>
	<vehicle id="S_240" type="car7" route="route1_3" depart="167" departLane = "2" departSpeed="11.180000"/>
	<vehicle id="S_241" type="car8" route="route3_1" depart="167" departLane = "0" departSpeed="11.180000"/>
	<vehicle id="S_242" type="car8" route="route4_2" depart="168" departLane = "0" departSpeed="11.180000"/>
	<vehicle id="L_243" type="car5" route="route3_4" depart="169" departLane = "1" departSpeed="11.180000"/>
	<vehicle id="L_244" type="car8" route="route1_2" depart="170" departLane = "2" departSpeed="11.180000"/>
	<vehicle id="L_245" type="car7" route="route2_3" depart="170" departLane = "0" departSpeed="11.180000"/>
	<vehicle id="R_246" type="car8" route="route3_2" depart="170" departLane = "1" departSpeed="11.180000"/>
	<vehicle id="L_247" type="car9" route="route4_1" depart="170" departLane = "2" departSpeed="11.180000"/>
	<vehicle id="S_248" type="car9" route="route1_3" depart="171" departLane = "1" departSpeed="11.180000"/>
	<vehicle id="R_249" type="car5" route="route2_1" depart="171" departLane = "2" departSpeed="11.180000"/>
	<vehicle id="S_250" type="car7" route="route3_1" depart="171" departLane = "2" departSpeed="11.180000"/>
	<vehicle id="L_251" type="car7" route="route2_3" depart="174" departLane = "1" departSpeed="11.180000"/>
	<vehicle id="R_252" type="car9" route="route4_3" depart="174" departLane = "2" departSpeed="11.180000"/>
	<vehicle id="S_253" type="car9" route="route4_2" depart="175" departLane = "2" departSpeed="11.180000"/>
	<vehicle id="L_254" type="car9" route="route1_2" depart="177" departLane = "1" departSpeed="11.180000"/>
	<vehicle id="S_255" type="car9" route="route1_3" depart="178" departLane = "0" departSpeed="11.180000"/>
	<vehicle id="S_256" type="car8" route="route3_1" depart="178" departLane = "1" departSpeed="11.180000"/>
	<vehicle id="L_257" type="car9" route="route1_2" depart="179" departLane = "1" departSpeed="11.180000"/>
	<vehicle id="S_258" type="car8" route="route2_4" depart="179" departLane = "2" departSpeed="11.180000"/>
	<vehicle id="S_259" type="car7" route="route3_1" depart="179" departLane = "1" departSpeed="11.180000"/>
	<vehicle id="L_260" type="car6" route="route3_4" depart="180" departLane = "0" departSpeed="11.180000"/>
	<vehicle id="S_261" type="car5" route="route3_1" depart="181" departLane = "2" departSpeed="11.180000"/>
	<vehicle id="L_262" type="car7" route="route4_1" depart="181" departLane = "1" departSpeed="11.180000"/>
	<vehicle id="L_263" type="car5" route="route3_4" depart="182" departLane = "2" departSpeed="11.180000"/>
	<vehicle id="S_264" type="car7" route="route1_3" depart="183" departLane = "1" departSpeed="11.180000"/>
	<vehicle id="S_265" type="car9" route="route2_4" depart="183" departLane = "2" departSpeed="11.180000"/>
	<vehicle id="R_266" type="car8" route="route3_2" depart="183" departLane = "1" departSpeed="11.180000"/>
	<vehicle id="L_267" type="car7" route="route2_3" depart="184" departLane = "2" departSpeed="11.180000"/>
	<vehicle id="S_268" type="car7" route="route1_3" depart="185" departLane = "2" departSpeed="11.180000"/>
	<vehicle id="R_269" type="car6" route="route2_1" depart="186" departLane = "0" departSpeed="11.180000"/>
	<vehicle id="L_270" type="car6" route="route1_2" depart="187" departLane = "1" departSpeed="11.180000"/>
	<vehicle id="S_271" type="car6" route="route3_1" depart="187" departLane = "2" departSpeed="11.180000"/>
	<vehicle id="R_272" type="car6" route="route1_4" depart="188" departLane = "2" departSpeed="11.180000"/>