<routes>

	<vType id="car5" accel="100.0" decel="100.0" sigma="0.0" length="5" minGap="3.000000" maxSpeed="11.180000" tau="0.100000" carFollowModel="CACC" color="255,255,255"/>
	<vType id="car6" accel="100.0" decel="100.0" sigma="0.0" length="6" minGap="3.000000" maxSpeed="11.180000" tau="0.100000" carFollowModel="CACC" color="255,255,255"/>
	<vType id="car7" accel="100.0" decel="100.0" sigma="0.0" length="7" minGap="3.000000" maxSpeed="11.180000" tau="0.100000" carFollowModel="CACC" color="255,255,255"/>
	<vType id="car8" accel="100.0" decel="100.0" sigma="0.0" length="8" minGap="3.000000" maxSpeed="11.180000" tau="0.100000" carFollowModel="CACC" color="255,255,255"/>
	<vType id="car9" accel="100.0" decel="100.0" sigma="0.0" length="9" minGap="3.000000" maxSpeed="11.180000" tau="0.100000" carFollowModel="CACC" color="255,255,255"/>

	<route id="route1_2" edges=" 1 -2"/>
	<route id="route1_3" edges=" 1 -3"/>
	<route id="route1_4" edges=" 1 -4"/>
	<route id="route2_1" edges=" 2 -1"/>
	<route id="route2_3" edges=" 2 -3"/>
	<route id="route2_4" edges=" 2 -4"/>
	<route id="route3_1" edges=" 3 -1"/>
	<route id="route3_2" edges=" 3 -2"/>
	<route id="route3_4" edges=" 3 -4"/>
	<route id="route4_1" edges=" 4 -1"/>
	<route id="route4_2" edges=" 4 -2"/>
	<route id="route4_3" edges=" 4 -3"/>

	<vehicle id="R_0" type="car6" route="route1_4" depart="0" departLane = "0" departSpeed="11.180000"/>
	<vehicle id="S_1" type="car7" route="route2_4" depart="0" departLane = "0" departSpeed="11.180000"/>
	<vehicle id="R_2" type="car6" route="route2_1" depart="1" departLane = "1" departSpeed="11.180000"/>
	<vehicle id="R_3" type="car6" route="route3_2" depart="1" departLane = "0" departSpeed="11.180000"/>
	<vehicle id="R_4" type="car8" route="route4_3" depart="2" departLane = "0" departSpeed="11.180000"/>
	<vehicle id="L_5" type="car8" route="route4_1" depart="3" departLane = "1" departSpeed="11.180000"/>
	<vehicle id="R_6" type="car5" route="route2_1" depart="4" departLane = "1" departSpeed="11.180000"/>
	<vehicle id="L_7" type="car9" route="route3_4" depart="7" departLane = "0" departSpeed="11.180000"/>
	<vehicle id="L_8" type="car8" route="route4_1" depart="7" departLane = "0" departSpeed="11.180000"/>
	<vehicle id="S_9" type="car6" route="route2_4" depart="9" departLane = "1" departSpeed="11.180000"/>
	<vehicle id="R_10" type="car6" route="route2_1" depart="11" departLane = "0" departSpeed="11.180000"/>
	<vehicle id="L_11" type="car5" route="route1_2" depart="12" departLane = "0" departSpeed="11.180000"/>
	<vehicle id="R_12" type="car9" route="route3_2" depart="12" departLane = "2" departSpeed="11.180000"/>
	<vehicle id="R_13" type="car9" route="route3_2" depart="13" departLane = "0" departSpeed="11.180000"/>
	<vehicle id="L_14" type="car5" route="route2_3" depart="15" departLane = "1" departSpeed="11.180000"/>
	<vehicle id="S_15" type="car5" route="route2_4" depart="16" departLane = "0" departSpeed="11.180000"/>
	<vehicle id="L_16" type="car7" route="route2_3" depart="17" departLane = "2" departSpeed="11.180000"/>
	<vehicle id="S_17" type="car5" route="route3_1" depart="17" departLane = "0" departSpeed="11.180000"/>
	<vehicle id="L_18" type="car5" route="route4_1" depart="17" departLane = "2" departSpeed="11.180000"/>
	<vehicle id="R_19" type="car6" route="route1_4" depart="18" departLane = "1" departSpeed="11.180000"/>
	<vehicle id="S_20" type="car8" route="route3_1" depart="18" departLane = "1" departSpeed="11.180000"/>
	<vehicle id="R_21" type="car5" route="route3_2" depart="19" departLane = "1" departSpeed="11.180000"/>
	<vehicle id="R_22" type="car9" route="route1_4" depart="20" departLane = "2" departSpeed="11.180000"/>
	<vehicle id="R_23" type="car6" route="route3_2" depart="20" departLane = "0" departSpeed="11.180000"/>
	<vehicle id="L_24" type="car9" route="route4_1" depart="20" departLane = "0" departSpeed="11.180000"/>
	<vehicle id="L_25" type="car9" route="route1_2" depart="21" departLane = "0" departSpeed="11.180000"/>
	<vehicle id="S_26" type="car9" route="route2_4" depart="23" departLane = "0" departSpeed="11.180000"/>
	<vehicle id="L_27" type="car9" route="route4_1" depart="26" departLane = "2" departSpeed="11.180000"/>
	<vehicle id="R_28" type="car5" route="route2_1" depart="27" departLane = "2" departSpeed="11.180000"/>
	<vehicle id="S_29" type="car8" route="route1_3" depart="28" departLane = "0" departSpeed="11.180000"/>
	<vehicle id="S_30" type="car9" route="route1_3" depart="29" departLane = "0" departSpeed="11.180000"/>
	<vehicle id="R_31" type="car5" route="route2_1" depart="29" departLane = "2" departSpeed="11.180000"/>
	<vehicle id="S_32" type="car6" route="route4_2" depart="30" departLane = "2" departSpeed="11.180000"/>
	<vehicle id="L_33" type="car7" route="route1_2" depart="32" departLane = "0" departSpeed="11.180000"/>
	<vehicle id="L_34" type="car8" route="route1_2" depart="33" departLane = "1" departSpeed="11.180000"/>
	<vehicle id="S_35" type="car9" route="route3_1" depart="33" departLane = "2" departSpeed="11.180000"/>
	<vehicle id="S_36" type="car6" route="route4_2" depart="33" departLane = "1" departSpeed="11.180000"/>
	<vehicle id="S_37" type="car9" route="route3_1" depart="34" departLane = "1" departSpeed="11.180000"/>
	<vehicle id="S_38" type="car8" route="route4_2" depart="34" departLane = "0" departSpeed="11.180000"/>
	<vehicle id="S_39" type="car5" route="route2_4" depart="36" departLane = "2" departSpeed="11.180000"/>
	<vehicle id="S_40" type="car5" route="route3_1" depart="37" departLane = "2" departSpeed="11.180000"/>
	<vehicle id="S_41" type="car6" route="route4_2" depart="37" departLane = "1" departSpeed="11.180000"/>
	<vehicle id="R_42" type="car7" route="route4_3" depart="38" departLane = "0" departSpeed="11.180000"/>
	<vehicle id="L_43" type="car9" route="route4_1" depart="39" departLane = "0" departSpeed="11.180000"/>
	<vehicle id="S_44" type="car6" route="route4_2" depart="43" departLane = "2" departSpeed="11.180000"/>
	<vehicle id="S_45" type="car5" route="route2_4" depart="44" departLane = "0" departSpeed="11.180000"/>
	<vehicle id="R_46" type="car6" route="route4_3" depart="44" departLane = "2" departSpeed="11.180000"/>
	<vehicle id="L_47" type="car9" route="route4_1" depart="45" departLane = "1" departSpeed="11.180000"/>
	<vehicle id="S_48" type="car6" route="route1_3" depart="46" departLane = "1" departSpeed="11.180000"/>
	<vehicle id="S_49" type="car9" route="route3_1" depart="46" departLane = "0" departSpeed="11.180000"/>
	<vehicle id="R_50" type="car7" route="route4_3" depart="47" departLane = "1" departSpeed="11.180000"/>
	<vehicle id="S_51" type="car8" route="route1_3" depart="49" departLane = "1" departSpeed="11.180000"/>
	<vehicle id="S_52" type="car8" route="route4_2" depart="51" departLane = "0" departSpeed="11.180000"/>
	<vehicle id="L_53" type="car7" route="route4_1" depart="53" departLane = "0" departSpeed="11.180000"/>
	<vehicle id="S_54" type="car9" route="route2_4" depart="55" departLane = "0" departSpeed="11.180000"/>
	<vehicle id="L_55" type="car6" route="route3_4" depart="56" departLane = "0" departSpeed="11.180000"/>
	<vehicle id="R_56" type="car6" route="route3_2" depart="57" departLane = "0" departSpeed="11.180000"/>
	<vehicle id="S_57" type="car8" route="route1_3" depart="58" departLane = "2" departSpeed="11.180000"/>
	<vehicle id="R_58" type="car5" route="route2_1" depart="59" departLane = "0" departSpeed="11.180000"/>
	<vehicle id="S_59" type="car9" route="route4_2" depart="59" departLane = "0" departSpeed="11.180000"/>
	<vehicle id="R_60" type="car7" route="route2_1" depart="63" departLane = "2" departSpeed="11.180000"/>
	<vehicle id="S_61" type="car9" route="route3_1" depart="63" departLane = "0" departSpeed="11.180000"/>
	<vehicle id="L_62" type="car5" route="route3_4" depart="65" departLane = "2" departSpeed="11.180000"/>
	<vehicle id="S_63" type="car9" route="route1_3" depart="66" departLane = "0" departSpeed="11.180000"/>
	<vehicle id="R_64" type="car7" route="route3_2" depart="66" departLane = "1" departSpeed="11.180000"/>
	<vehicle id="R_65" type="car9" route="route1_4" depart="67" departLane = "2" departSpeed="11.180000"/>
	<vehicle id="S_66" type="car9" route="route1_3" depart="69" departLane = "1" departSpeed="11.180000"/>
	<vehicle id="L_67" type="car6" route="route2_3" depart="70" departLane = "1" departSpeed="11.180000"/>
	<vehicle id="S_68" type="car7" route="route3_1" depart="74" departLane = "2" departSpeed="11.180000"/>
	<vehicle id="L_69" type="car5" route="route2_3" depart="75" departLane = "0" departSpeed="11.180000"/>
	<vehicle id="R_70" type="car9" route="route2_1" depart="76" departLane = "2" departSpeed="11.180000"/>
	<vehicle id="R_71" type="car8" route="route4_3" depart="76" departLane = "2" departSpeed="11.180000"/>
	<vehicle id="S_72" type="car5" route="route2_4" depart="77" departLane = "2" departSpeed="11.180000"/>
	<vehicle id="S_73" type="car9" route="route4_2" depart="77" departLane = "1" departSpeed="11.180000"/>
	<vehicle id="L_74" type="car9" route="route2_3" depart="79" departLane = "1" departSpeed="11.180000"/>
	<vehicle id="S_75" type="car9" route="route2_4" depart="81" departLane = "0" departSpeed="11.180000"/>
	<vehicle id="L_76" type="car6" route="route1_2" depart="84" departLane = "0" departSpeed="11.180000"/>
	<vehicle id="S_77" type="car5" route="route3_1" depart="84" departLane = "2" departSpeed="11.180000"/>
	<vehicle id="S_78" type="car6" route="route1_3" depart="85" departLane = "0" departSpeed="11.180000"/>
	<vehicle id="R_79" type="car7" route="route2_1" depart="86" departLane = "1" departSpeed="11.180000"/>
	<vehicle id="L_80" type="car9" route="route4_1" depart="86" departLane = "0" departSpeed="11.180000"/>
	<vehicle id="L_81" type="car6" route="route1_2" depart="87" departLane = "2" departSpeed="11.180000"/>
	<vehicle id="R_82" type="car5" route="route1_4" depart="88" departLane = "2" departSpeed="11.180000"/>
	<vehicle id="S_83" type="car5" route="route3_1" depart="88" departLane = "2" departSpeed="11.180000"/>
	<vehicle id="S_84" type="car6" route="route4_2" depart="88" departLane = "0" departSpeed="11.180000"/>
	<vehicle id="R_85" type="car9" route="route2_1" depart="90" departLane = "0" departSpeed="11.180000"/>
	<vehicle id="S_86" type="car8" route="route2_4" depart="91" departLane = "2" departSpeed="11.180000"/>
	<vehicle id="R_87" type="car5" route="route1_4" depart="92" departLane = "0" departSpeed="11.180000"/>
	<vehicle id="S_88" type="car6" route="route1_3" depart="94" departLane = "0" departSpeed="11.180000"/>
	<vehicle id="R_89" type="car5" route="route2_1" depart="94" departLane = "1" departSpeed="11.180000"/>
	<vehicle id="R_90" type="car9" route="route4_3" depart="95" departLane = "1" departSpeed="11.180000"/>
	<vehicle id="L_91" type="car5" route="route1_2" depart="96" departLane = "0" departSpeed="11.180000"/>
	<vehicle id="S_92" type="car8" route="route2_4" depart="97" departLane = "0" departSpeed="11.180000"/>
	<vehicle id="R_93" type="car7" route="route4_3" depart="97" departLane = "1" departSpeed="11.180000"/>
	<vehicle id="S_94" type="car8" route="route3_1" depart="98" departLane = "0" departSpeed="11.180000"/>
	<vehicle id="L_95" type="car7" route="route2_3" depart="99" departLane = "0" departSpeed="11.180000"/>
	<vehicle id="S_96" type="car8" route="route3_1" depart="100" departLane = "1" departSpeed="11.180000"/>
	<vehicle id="S_97" type="car9" route="route2_4" depart="101" departLane = "1" departSpeed="11.180000"/>
	<vehicle id="S_98" type="car5" route="route3_1" depart="101" departLane = "0" departSpeed="11.180000"/>
	<vehicle id="S_99" type="car8" route="route4_2" depart="102" departLane = "1" departSpeed="11.180000"/>
	<vehicle id="L_100" type="car5" route="route2_3" depart="105" departLane = "1" departSpeed="11.180000"/>
	<vehicle id="S_101" type="car7" route="route2_4" depart="106" departLane = "2" departSpeed="11.180000"/>
	<vehicle id="S_102" type="car9" route="route3_1" depart="106" departLane = "2" departSpeed="11.180000"/>
	<vehicle id="R_103" type="car8" route="route4_3" depart="106" departLane = "2" departSpeed="11.180000"/>
	<vehicle id="R_104" type="car9" route="route4_3" depart="107" departLane = "1" departSpeed="11.180000"/>
	<vehicle id="S_105" type="car6" route="route1_3" depart="108" departLane = "1" departSpeed="11.180000"/>
	<vehicle id="L_106" type="car9" route="route3_4" depart="109" departLane = "1" departSpeed="11.180000"/>
	<vehicle id="R_107" type="car5" route="route1_4" depart="110" departLane = "1" departSpeed="11.180000"/>
	<vehicle id="R_108" type="car9" route="route4_3" depart="111" departLane = "2" departSpeed="11.180000"/>
	<vehicle id="R_109" type="car6" route="route2_1" depart="112" departLane = "0" departSpeed="11.180000"/>
	<vehicle id="S_110" type="car8" route="route1_3" depart="113" departLane = "1" departSpeed="11.180000"/>
	<vehicle id="L_111" type="car5" route="route2_3" depart="114" departLane = "1" departSpeed="11.180000"/>
	<vehicle id="S_112" type="car6" route="route3_1" depart="114" departLane = "2" departSpeed="11.180000"/>
	<vehicle id="L_113" type="car5" route="route3_4" depart="115" departLane = "1" departSpeed="11.180000"/>
	<vehicle id="R_114" type="car7" route="route1_4" depart="116" departLane = "2" departSpeed="11.180000"/>
	<vehicle id="R_115" type="car5" route="route4_3" depart="117" departLane = "1" departSpeed="11.180000"/>
	<vehicle id="S_116" type="car8" route="route2_4" depart="119" departLane = "2" departSpeed="11.180000"/>
	<vehicle id="R_117" type="car6" route="route3_2" depart="121" departLane = "1" departSpeed="11.180000"/>
	<vehicle id="L_118" type="car9" route="route3_4" depart="123" departLane = "0" departSpeed="11.180000"/>
	<vehicle id="R_119" type="car9" route="route4_3" depart="123" departLane = "0" departSpeed="11.180000"/>
	<vehicle id="S_120" type="car7" route="route1_3" depart="124" departLane = "1" departSpeed="11.180000"/>
	<vehicle id="R_121" type="car9" route="route2_1" depart="124" departLane = "0" departSpeed="11.180000"/>
	<vehicle id="R_122" type="car8" route="route4_3" depart="124" departLane = "1" departSpeed="11.180000"/>
	<vehicle id="R_123" type="car5" route="route2_1" depart="125" departLane = "2" departSpeed="11.180000"/>
	<vehicle id="R_124" type="car9" route="route3_2" depart="125" departLane = "0" departSpeed="11.180000"/>
	<vehicle id="L_125" type="car8" route="route3_4" depart="127" departLane = "1" departSpeed="11.180000"/>
	<vehicle id="L_126" type="car6" route="route2_3" depart="129" departLane = "1" departSpeed="11.180000"/>
	<vehicle id="S_127" type="car5" route="route3_1" depart="129" departLane = "0" departSpeed="11.180000"/>
	<vehicle id="L_128" type="car9" route="route1_2" depart="132" departLane = "2" departSpeed="11.180000"/>
	<vehicle id="S_129" type="car8" route="route1_3" depart="135" departLane = "2" departSpeed="11.180000"/>
	<vehicle id="S_130" type="car7" route="route3_1" depart="135" departLane = "0" departSpeed="11.180000"/>
	<vehicle id="S_131" type="car5" route="route1_3" depart="137" departLane = "2" departSpeed="11.180000"/>
	<vehicle id="S_132" type="car6" route="route3_1" depart="138" departLane = "1" departSpeed="11.180000"/>
	<vehicle id="L_133" type="car5" route="route2_3" depart="143" departLane = "1" departSpeed="11.180000"/>
	<vehicle id="R_134" type="car9" route="route3_2" depart="143" departLane = "2" departSpeed="11.180000"/>
	<vehicle id="R_135" type="car8" route="route1_4" depart="144" departLane = "2" departSpeed="11.180000"/>
	<vehicle id="L_136" type="car9" route="route2_3" depart="144" departLane = "2" departSpeed="11.180000"/>
	<vehicle id="L_137" type="car7" route="route1_2" depart="145" departLane = "0" departSpeed="11.180000"/>
	<vehicle id="S_138" type="car5" route="route4_2" depart="145" departLane = "2" departSpeed="11.180000"/>
	<vehicle id="L_139" type="car5" route="route2_3" depart="146" departLane = "0" departSpeed="11.180000"/>
	<vehicle id="S_140" type="car7" route="route4_2" depart="146" departLane = "0" departSpeed="11.180000"/>
	<vehicle id="R_141" type="car5" route="route4_3" depart="148" departLane = "0" departSpeed="11.180000"/>
	<vehicle id="S_142" type="car7" route="route2_4" depart="150" departLane = "0" departSpeed="11.180000"/>
	<vehicle id="R_143" type="car8" route="route4_3" depart="150" departLane = "2" departSpeed="11.180000"/>
	<vehicle id="R_144" type="car5" route="route1_4" depart="153" departLane = "0" departSpeed="11.180000"/>
	<vehicle id="S_145" type="car6" route="route4_2" depart="154" departLane = "1" departSpeed="11.180000"/>
	<vehicle id="L_146" type="car7" route="route1_2" depart="155" departLane = "1" departSpeed="11.180000"/>
	<vehicle id="S_147" type="car9" route="route2_4" depart="156" departLane = "2" departSpeed="11.180000"/>
	<vehicle id="R_148" type="car7" route="route1_4" depart="158" departLane = "2" departSpeed="11.180000"/>
	<vehicle id="R_149" type="car5" route="route2_1" depart="158" departLane = "0" departSpeed="11.180000"/>
	<vehicle id="L_150" type="car6" route="route4_1" depart="158" departLane = "1" departSpeed="11.180000"/>
	<vehicle id="L_151" type="car7" route="route3_4" depart="159" departLane = "2" departSpeed="11.180000"/>
	<vehicle id="R_152" type="car7" route="route2_1" depart="160" departLane = "1" departSpeed="11.180000"/>
	<vehicle id="R_153" type="car9" route="route3_2" depart="160" departLane = "1" departSpeed="11.180000"/>
	<vehicle id="L_154" type="car9" route="route2_3" depart="161" departLane = "2" departSpeed="11.180000"/>
	<vehicle id="R_155" type="car6" route="route3_2" depart="161" departLane = "2" departSpeed="11.180000"/>
	<vehicle id="R_156" type="car8" route="route4_3" depart="161" departLane = "0" departSpeed="11.180000"/>
	<vehicle id="R_157" type="car6" route="route3_2" depart="162" departLane = "0" departSpeed="11.180000"/>
	<vehicle id="S_158" type="car8" route="route2_4" depart="165" departLane = "1" departSpeed="11.180000"/>
	<vehicle id="S_159" type="car7" route="route4_2" depart="166" departLane = "1" departSpeed="11.180000"/>
	<vehicle id="S_160" type="car5" route="route3_1" depart="167" departLane = "1" departSpeed="11.180000"/>
	<vehicle id="R_161" type="car8" route="route1_4" depart="168" departLane = "0" departSpeed="11.180000"/>
	<vehicle id="L_162" type="car8" route="route3_4" depart="168" departLane = "1" departSpeed="11.180000"/>
	<vehicle id="L_163" type="car5" route="route4_1" depart="169" departLane = "2" departSpeed="11.180000"/>
	<vehicle id="R_164" type="car5" route="route2_1" depart="170" departLane = "2" departSpeed="11.180000"/>
	<vehicle id="R_165" type="car8" route="route3_2" depart="171" departLane = "0" departSpeed="11.180000"/>
	<vehicle id="R_166" type="car9" route="route2_1" depart="173" departLane = "1" departSpeed="11.180000"/>
	<vehicle id="R_167" type="car5" route="route1_4" depart="175" departLane = "2" departSpeed="11.180000"/>
	<vehicle id="L_168" type="car9" route="route1_2" depart="176" departLane = "2" departSpeed="11.180000"/>
	<vehicle id="L_169" type="car6" route="route2_3" depart="176" departLane = "2" departSpeed="11.180000"/>
	<vehicle id="S_170" type="car7" route="route1_3" depart="177" departLane = "1" departSpeed="11.180000"/>
	<vehicle id="R_171" type="car7" route="route4_3" depart="177" departLane = "0" departSpeed="11.180000"/>
	<vehicle id="R_172" type="car6" route="route4_3" depart="180" departLane = "0" departSpeed="11.180000"/>
	<vehicle id="S_173" type="car7" route="route3_1" depart="181" departLane = "1" departSpeed="11.180000"/>
	<vehicle id="R_174" type="car5" route="route1_4" depart="182" departLane = "1" departSpeed="11.180000"/>
	<vehicle id="L_175" type="car8" route="route1_2" depart="183" departLane = "1" departSpeed="11.180000"/>
	<vehicle id="L_176" type="car7" route="route1_2" depart="184" departLane = "2" departSpeed="11.180000"/>
	<vehicle id="L_177" type="car7" route="route4_1" depart="189" departLane = "1" departSpeed="11.180000"/>
	<vehicle id="L_178" type="car7" route="route4_1" depart="193" departLane = "0" departSpeed="11.180000"/>
	<vehicle id="L_179" type="car8" route="route1_2" depart="194" departLane = "0" departSpeed="11.180000"/>
	<vehicle id="L_180" type="car6" route="route2_3" depart="194" departLane = "1" departSpeed="11.180000"/>
	<vehicle id="S_181" type="car7" route="route4_2" depart="194" departLane = "1" departSpeed="11.180000"/>
	<vehicle id="L_182" type="car6" route="route1_2" depart="195" departLane = "1" departSpeed="11.180000"/>
	<vehicle id="S_183" type="car7" route="route1_3" depart="197" departLane = "1" departSpeed="11.180000"/>
	<vehicle id="R_184" type="car6" route="route3_2" depart="197" departLane = "1" departSpeed="11.180000"/>
	<vehicle id="S_185" type="car7" route="route1_3" depart="199" departLane = "2" departSpeed="11.180000"/>
	<vehicle id="S_186" type="car5" route="route3_1" depart="199" departLane = "0" departSpeed="11.180000"/>
	<vehicle id="S_187" type="car5" route="route1_3" depart="200" departLane = "2" departSpeed="11.180000"/>
	<vehicle id="R_188" type="car6" route="route4_3" depart="201" departLane = "1" departSpeed="11.180000"/>
	<vehicle id="R_189" type="car5" route="route4_3" depart="202" departLane = "0" departSpeed="11.180000"/>
	<vehicle id="R_190" type="car5" route="route3_2" depart="203" departLane = "0" departSpeed="11.180000"/>
	<vehicle id="S_191" type="car9" route="route1_3" depart="204" departLane = "1" departSpeed="11.180000"/>
	<vehicle id="R_192" type="car6" route="route2_1" depart="204" departLane = "2" departSpeed="11.180000"/>
	<vehicle id="L_193" type="car7" route="route1_2" depart="205" departLane = "2" departSpeed="11.180000"/>
	<vehicle id="S_194" type="car9" route="route2_4" depart="206" departLane = "0" departSpeed="11.180000"/>
	<vehicle id="R_195" type="car9" route="route1_4" depart="208" departLane = "1" departSpeed="11.180000"/>
	<vehicle id="S_196" type="car7" route="route4_2" depart="208" departLane = "1" departSpeed="11.180000"/>
	<vehicle id="R_197" type="car6" route="route3_2" depart="212" departLane = "1" departSpeed="11.180000"/>
	<vehicle id="R_198" type="car7" route="route3_2" depart="213" departLane = "2" departSpeed="11.180000"/>
	<vehicle id="L_199" type="car8" route="route4_1" depart="213" departLane = "0" departSpeed="11.180000"/>
	<vehicle id="L_200" type="car5" route="route3_4" depart="214" departLane = "1" departSpeed="11.180000"/>
	<vehicle id="L_201" type="car7" route="route1_2" depart="215" departLane = "0" departSpeed="11.180000"/>
	<vehicle id="R_202" type="car5" route="route2_1" depart="215" departLane = "2" departSpeed="11.180000"/>
	<vehicle id="S_203" type="car7" route="route4_2" depart="217" departLane = "1" departSpeed="11.180000"/>
	<vehicle id="S_204" type="car8" route="route1_3" depart="219" departLane = "1" departSpeed="11.180000"/>
	<vehicle id="L_205" type="car7" route="route3_4" depart="220" departLane = "0" departSpeed="11.180000"/>
	<vehicle id="L_206" type="car7" route="route1_2" depart="221" departLane = "1" departSpeed="11.180000"/>
	<vehicle id="S_207" type="car5" route="route1_3" depart="222" departLane = "2" departSpeed="11.180000"/>
	<vehicle id="L_208" type="car7" route="route2_3" depart="222" departLane = "1" departSpeed="11.180000"/>
	<vehicle id="S_209" type="car5" route="route2_4" depart="225" departLane = "1" departSpeed="11.180000"/>
	<vehicle id="L_210" type="car8" route="route3_4" depart="225" departLane = "1" departSpeed="11.180000"/>
	<vehicle id="S_211" type="car9" route="route4_2" depart="225" departLane = "2" departSpeed="11.180000"/>
	<vehicle id="R_212" type="car7" route="route3_2" depart="226" departLane = "2" departSpeed="11.180000"/>
	<vehicle id="S_213" type="car5" route="route2_4" depart="228" departLane = "2" departSpeed="11.180000"/>
	<vehicle id="R_214" type="car6" route="route3_2" depart="228" departLane = "2" departSpeed="11.180000"/>
	<vehicle id="L_215" type="car5" route="route3_4" depart="229" departLane = "0" departSpeed="11.180000"/>
	<vehicle id="S_216" type="car8" route="route1_3" depart="231" departLane = "0" departSpeed="11.180000"/>
	<vehicle id="S_217" type="car8" route="route4_2" depart="231" departLane = "2" departSpeed="11.180000"/>
	<vehicle id="R_218" type="car7" route="route4_3" depart="234" departLane = "2" departSpeed="11.180000"/>
	<vehicle id="R_219" type="car6" route="route2_1" depart="235" departLane = "1" departSpeed="11.180000"/>
	<vehicle id="S_220" type="car5" route="route1_3" depart="236" departLane = "0" departSpeed="11.180000"/>
	<vehicle id="R_221" type="car5" route="route4_3" depart="236" departLane = "0" departSpeed="11.180000"/>
	<vehicle id="R_222" type="car5" route="route3_2" depart="237" departLane = "2" departSpeed="11.180000"/>
	<vehicle id="R_223" type="car8" route="route4_3" depart="237" departLane = "0" departSpeed="11.180000"/>
	<vehicle id="R_224" type="car6" route="route1_4" depart="238" departLane = "2" departSpeed="11.180000"/>
	<vehicle id="R_225" type="car6" route="route3_2" depart="238" departLane = "2" departSpeed="11.180000"/>
	<vehicle id="S_226" type="car9" route="route3_1" depart="240" departLane = "0" departSpeed="11.180000"/>
	<vehicle id="S_227" type="car9" route="route3_1" depart="241" departLane = "0" departSpeed="11.180000"/>
	<vehicle id="L_228" type="car5" route="route3_4" depart="242" departLane = "0" departSpeed="11.180000"/>
	<vehicle id="S_229" type="car7" route="route1_3" depart="243" departLane = "1" departSpeed="11.180000"/>
	<vehicle id="R_230" type="car8" route="route3_2" depart="243" departLane = "1" departSpeed="11.180000"/>
	<vehicle id="S_231" type="car8" route="route2_4" depart="245" departLane = "0" departSpeed="11.180000"/>
	<vehicle id="L_232" type="car6" route="route2_3" depart="246" departLane = "1" departSpeed="11.180000"/>
	<vehicle id="L_233" type="car9" route="route2_3" depart="247" departLane = "1" departSpeed="11.180000"/>
	<vehicle id="L_234" type="car7" route="route4_1" depart="247" departLane = "1" departSpeed="11.180000"/>
	<vehicle id="L_235" type="car6" route="route4_1" depart="253" departLane = "1" departSpeed="11.180000"/>
	<vehicle id="L_236" type="car9" route="route3_4" depart="256" departLane = "2" departSpeed="11.180000"/>
	<vehicle id="S_237" type="car5" route="route3_1" depart="258" departLane = "2" departSpeed="11.180000"/>
	<vehicle id="L_238" type="car5" route="route2_3" depart="261" departLane = "0" departSpeed="11.180000"/>
	<vehicle id="R_239" type="car9" route="route1_4" depart="262" departLane = "1" departSpeed="11.180000"/>
	<vehicle id="S_240" type="car7" route="route4_2" depart="262" departLane = "0" departSpeed="11.180000"/>
	<vehicle id="S_241" type="car7" route="route2_4" depart="263" departLane = "1" departSpeed="11.180000"/>
	<vehicle id="S_242" type="car9" route="route4_2" depart="263" departLane = "0" departSpeed="11.180000"/>
	<vehicle id="L_243" type="car7" route="route1_2" depart="267" departLane = "2" departSpeed="11.180000"/>
	<vehicle id="L_244" type="car5" route="route2_3" depart="268" departLane = "2" departSpeed="11.180000"/>
	<vehicle id="L_245" type="car7" route="route4_1" depart="269" departLane = "2" departSpeed="11.180000"/>
	<vehicle id="R_246" type="car9" route="route4_3" depart="273" departLane = "2" departSpeed="11.180000"/>
	<vehicle id="L_247" type="car7" route="route4_1" depart="274" departLane = "0" departSpeed="11.180000"/>
	<vehicle id="S_248" type="car6" route="route3_1" depart="275" departLane = "2" departSpeed="11.180000"/>
	<vehicle id="R_249" type="car7" route="route1_4" depart="276" departLane = "1" departSpeed="11.180000"/>
	<vehicle id="S_250" type="car9" route="route3_1" depart="276" departLane = "0" departSpeed="11.180000"/>
	<vehicle id="L_251" type="car6" route="route3_4" depart="278" departLane = "0" departSpeed="11.180000"/>
	<vehicle id="R_252" type="car8" route="route4_3" depart="278" departLane = "1" departSpeed="11.180000"/>
	<vehicle id="S_253" type="car9" route="route2_4" depart="279" departLane = "1" departSpeed="11.180000"/>
	<vehicle id="L_254" type="car6" route="route1_2" depart="280" departLane = "2" departSpeed="11.180000"/>
	<vehicle id="S_255" type="car7" route="route3_1" depart="281" departLane = "1" departSpeed="11.180000"/>
	<vehicle id="S_256" type="car6" route="route1_3" depart="283" departLane = "0" departSpeed="11.180000"/>
	<vehicle id="L_257" type="car9" route="route2_3" depart="283" departLane = "2" departSpeed="11.180000"/>
	<vehicle id="S_258" type="car6" route="route2_4" depart="285" departLane = "0" departSpeed="11.180000"/>
	<vehicle id="S_259" type="car6" route="route4_2" depart="286" departLane = "2" departSpeed="11.180000"/>
	<vehicle id="L_260" type="car8" route="route3_4" depart="287" departLane = "1" departSpeed="11.180000"/>
	<vehicle id="S_261" type="car6" route="route1_3" depart="288" departLane = "1" departSpeed="11.180000"/>
	<vehicle id="L_262" type="car7" route="route2_3" depart="288" departLane = "0" departSpeed="11.180000"/>
	<vehicle id="L_263" type="car8" route="route1_2" depart="289" departLane = "0" departSpeed="11.180000"/>
	<vehicle id="S_264" type="car7" route="route3_1" depart="289" departLane = "2" departSpeed="11.180000"/>
	<vehicle id="S_265" type="car6" route="route3_1" depart="290" departLane = "1" departSpeed="11.180000"/>
	<vehicle id="R_266" type="car8" route="route2_1" depart="291" departLane = "0" departSpeed="11.180000"/>
	<vehicle id="L_267" type="car7" route="route2_3" depart="292" departLane = "1" departSpeed="11.180000"/>
	<vehicle id="S_268" type="car7" route="route2_4" depart="293" departLane = "1" departSpeed="11.180000"/>
	<vehicle id="R_269" type="car7" route="route2_1" depart="295" departLane = "2" departSpeed="11.180000"/>
	<vehicle id="L_270" type="car8" route="route4_1" depart="295" departLane = "0" departSpeed="11.180000"/>
	<vehicle id="S_271" type="car5" route="route1_3" depart="299" departLane = "0" departSpeed="11.180000"/>