<routes>

	<vType id="car5" accel="100.0" decel="100.0" sigma="0.0" length="5" minGap="3.000000" maxSpeed="11.180000" tau="0.100000" carFollowModel="CACC" color="255,255,255"/>
	<vType id="car6" accel="100.0" decel="100.0" sigma="0.0" length="6" minGap="3.000000" maxSpeed="11.180000" tau="0.100000" carFollowModel="CACC" color="255,255,255"/>
	<vType id="car7" accel="100.0" decel="100.0" sigma="0.0" length="7" minGap="3.000000" maxSpeed="11.180000" tau="0.100000" carFollowModel="CACC" color="255,255,255"/>
	<vType id="car8" accel="100.0" decel="100.0" sigma="0.0" length="8" minGap="3.000000" maxSpeed="11.180000" tau="0.100000" carFollowModel="CACC" color="255,255,255"/>
	<vType id="car9" accel="100.0" decel="100.0" sigma="0.0" length="9" minGap="3.000000" maxSpeed="11.180000" tau="0.100000" carFollowModel="CACC" color="255,255,255"/>

	<route id="route1_2" edges=" 1 11 44 33 -2"/>
	<route id="route1_3" edges=" 1 11 44 -3"/>
	<route id="route1_4" edges=" 1 11 -4"/>
	<route id="route2_1" edges=" 2 22 -1"/>
	<route id="route2_3" edges=" 2 22 11 44 -3"/>
	<route id="route2_4" edges=" 2 22 11 -4"/>
	<route id="route3_1" edges=" 3 33 22 -1"/>
	<route id="route3_2" edges=" 3 33 -2"/>
	<route id="route3_4" edges=" 3 33 22 11 -4"/>
	<route id="route4_1" edges=" 4 44 33 22 -1"/>
	<route id="route4_2" edges=" 4 44 33 -2"/>
	<route id="route4_3" edges=" 4 44 -3"/>

	<vehicle id="S_0" type="car7" route="route2_4" depart="6" departLane = "1" departSpeed="11.180000"/>
	<vehicle id="R_1" type="car8" route="route3_2" depart="8" departLane = "2" departSpeed="11.180000"/>
	<vehicle id="S_2" type="car6" route="route4_2" depart="10" departLane = "2" departSpeed="11.180000"/>
	<vehicle id="S_3" type="car9" route="route1_3" depart="12" departLane = "1" departSpeed="11.180000"/>
	<vehicle id="S_4" type="car9" route="route2_4" depart="13" departLane = "1" departSpeed="11.180000"/>
	<vehicle id="S_5" type="car7" route="route3_1" depart="14" departLane = "1" departSpeed="11.180000"/>
	<vehicle id="S_6" type="car6" route="route3_1" depart="16" departLane = "0" departSpeed="11.180000"/>
	<vehicle id="R_7" type="car5" route="route3_2" depart="21" departLane = "2" departSpeed="11.180000"/>
	<vehicle id="R_8" type="car7" route="route1_4" depart="23" departLane = "0" departSpeed="11.180000"/>
	<vehicle id="S_9" type="car6" route="route1_3" depart="24" departLane = "0" departSpeed="11.180000"/>
	<vehicle id="R_10" type="car9" route="route2_1" depart="24" departLane = "2" departSpeed="11.180000"/>
	<vehicle id="S_11" type="car6" route="route4_2" depart="24" departLane = "0" departSpeed="11.180000"/>
	<vehicle id="S_12" type="car6" route="route2_4" depart="26" departLane = "0" departSpeed="11.180000"/>
	<vehicle id="R_13" type="car5" route="route1_4" depart="27" departLane = "0" departSpeed="11.180000"/>
	<vehicle id="L_14" type="car9" route="route3_4" depart="27" departLane = "1" departSpeed="11.180000"/>
	<vehicle id="L_15" type="car5" route="route4_1" depart="27" departLane = "1" departSpeed="11.180000"/>
	<vehicle id="L_16" type="car8" route="route2_3" depart="29" departLane = "0" departSpeed="11.180000"/>
	<vehicle id="R_17" type="car6" route="route3_2" depart="31" departLane = "2" departSpeed="11.180000"/>
	<vehicle id="R_18" type="car5" route="route3_2" depart="35" departLane = "2" departSpeed="11.180000"/>
	<vehicle id="R_19" type="car6" route="route1_4" depart="36" departLane = "1" departSpeed="11.180000"/>
	<vehicle id="R_20" type="car7" route="route2_1" depart="39" departLane = "0" departSpeed="11.180000"/>
	<vehicle id="R_21" type="car9" route="route1_4" depart="41" departLane = "2" departSpeed="11.180000"/>
	<vehicle id="S_22" type="car5" route="route4_2" depart="41" departLane = "1" departSpeed="11.180000"/>
	<vehicle id="R_23" type="car6" route="route1_4" depart="46" departLane = "2" departSpeed="11.180000"/>
	<vehicle id="L_24" type="car9" route="route4_1" depart="47" departLane = "2" departSpeed="11.180000"/>
	<vehicle id="S_25" type="car5" route="route3_1" depart="50" departLane = "1" departSpeed="11.180000"/>
	<vehicle id="L_26" type="car6" route="route3_4" depart="52" departLane = "0" departSpeed="11.180000"/>
	<vehicle id="R_27" type="car9" route="route1_4" depart="54" departLane = "2" departSpeed="11.180000"/>
	<vehicle id="S_28" type="car7" route="route2_4" depart="56" departLane = "0" departSpeed="11.180000"/>
	<vehicle id="S_29" type="car6" route="route4_2" depart="57" departLane = "0" departSpeed="11.180000"/>
	<vehicle id="L_30" type="car9" route="route4_1" depart="59" departLane = "0" departSpeed="11.180000"/>
	<vehicle id="R_31" type="car8" route="route1_4" depart="61" departLane = "2" departSpeed="11.180000"/>
	<vehicle id="S_32" type="car6" route="route1_3" depart="65" departLane = "0" departSpeed="11.180000"/>
	<vehicle id="S_33" type="car5" route="route3_1" depart="65" departLane = "0" departSpeed="11.180000"/>
	<vehicle id="L_34" type="car5" route="route1_2" depart="69" departLane = "2" departSpeed="11.180000"/>
	<vehicle id="S_35" type="car7" route="route1_3" depart="70" departLane = "1" departSpeed="11.180000"/>
	<vehicle id="S_36" type="car9" route="route3_1" depart="70" departLane = "0" departSpeed="11.180000"/>
	<vehicle id="S_37" type="car7" route="route4_2" depart="76" departLane = "0" departSpeed="11.180000"/>
	<vehicle id="R_38" type="car5" route="route2_1" depart="79" departLane = "0" departSpeed="11.180000"/>
	<vehicle id="R_39" type="car9" route="route1_4" depart="82" departLane = "0" departSpeed="11.180000"/>
	<vehicle id="S_40" type="car7" route="route1_3" depart="86" departLane = "0" departSpeed="11.180000"/>
	<vehicle id="S_41" type="car7" route="route4_2" depart="86" departLane = "1" departSpeed="11.180000"/>
	<vehicle id="R_42" type="car6" route="route2_1" depart="90" departLane = "2" departSpeed="11.180000"/>
	<vehicle id="L_43" type="car8" route="route1_2" depart="91" departLane = "1" departSpeed="11.180000"/>
	<vehicle id="R_44" type="car5" route="route3_2" depart="91" departLane = "0" departSpeed="11.180000"/>
	<vehicle id="R_45" type="car6" route="route4_3" depart="91" departLane = "2" departSpeed="11.180000"/>
	<vehicle id="L_46" type="car7" route="route2_3" depart="92" departLane = "2" departSpeed="11.180000"/>
	<vehicle id="L_47" type="car9" route="route2_3" depart="93" departLane = "0" departSpeed="11.180000"/>
	<vehicle id="L_48" type="car5" route="route1_2" depart="97" departLane = "0" departSpeed="11.180000"/>
	<vehicle id="S_49" type="car5" route="route3_1" depart="98" departLane = "0" departSpeed="11.180000"/>
	<vehicle id="S_50" type="car9" route="route2_4" depart="100" departLane = "2" departSpeed="11.180000"/>
	<vehicle id="S_51" type="car9" route="route2_4" depart="101" departLane = "1" departSpeed="11.180000"/>
	<vehicle id="R_52" type="car8" route="route4_3" depart="101" departLane = "0" departSpeed="11.180000"/>
	<vehicle id="L_53" type="car6" route="route1_2" depart="102" departLane = "1" departSpeed="11.180000"/>
	<vehicle id="L_54" type="car8" route="route3_4" depart="102" departLane = "1" departSpeed="11.180000"/>
	<vehicle id="L_55" type="car7" route="route1_2" depart="103" departLane = "1" departSpeed="11.180000"/>
	<vehicle id="S_56" type="car5" route="route2_4" depart="103" departLane = "0" departSpeed="11.180000"/>
	<vehicle id="L_57" type="car6" route="route4_1" depart="103" departLane = "1" departSpeed="11.180000"/>
	<vehicle id="S_58" type="car7" route="route1_3" depart="104" departLane = "0" departSpeed="11.180000"/>
	<vehicle id="L_59" type="car6" route="route2_3" depart="104" departLane = "0" departSpeed="11.180000"/>
	<vehicle id="L_60" type="car5" route="route3_4" depart="104" departLane = "2" departSpeed="11.180000"/>
	<vehicle id="L_61" type="car7" route="route2_3" depart="107" departLane = "0" departSpeed="11.180000"/>
	<vehicle id="S_62" type="car9" route="route2_4" depart="109" departLane = "2" departSpeed="11.180000"/>
	<vehicle id="L_63" type="car7" route="route1_2" depart="116" departLane = "2" departSpeed="11.180000"/>
	<vehicle id="L_64" type="car5" route="route1_2" depart="117" departLane = "0" departSpeed="11.180000"/>
	<vehicle id="S_65" type="car8" route="route2_4" depart="121" departLane = "2" departSpeed="11.180000"/>
	<vehicle id="R_66" type="car5" route="route4_3" depart="121" departLane = "1" departSpeed="11.180000"/>
	<vehicle id="L_67" type="car5" route="route1_2" depart="125" departLane = "2" departSpeed="11.180000"/>
	<vehicle id="R_68" type="car9" route="route2_1" depart="125" departLane = "1" departSpeed="11.180000"/>
	<vehicle id="L_69" type="car7" route="route3_4" depart="127" departLane = "0" departSpeed="11.180000"/>
	<vehicle id="R_70" type="car6" route="route1_4" depart="136" departLane = "1" departSpeed="11.180000"/>
	<vehicle id="S_71" type="car6" route="route3_1" depart="136" departLane = "2" departSpeed="11.180000"/>
	<vehicle id="R_72" type="car8" route="route4_3" depart="136" departLane = "1" departSpeed="11.180000"/>
	<vehicle id="S_73" type="car5" route="route2_4" depart="137" departLane = "2" departSpeed="11.180000"/>
	<vehicle id="R_74" type="car8" route="route4_3" depart="137" departLane = "2" departSpeed="11.180000"/>
	<vehicle id="L_75" type="car5" route="route1_2" depart="138" departLane = "0" departSpeed="11.180000"/>
	<vehicle id="L_76" type="car7" route="route2_3" depart="140" departLane = "1" departSpeed="11.180000"/>
	<vehicle id="L_77" type="car5" route="route3_4" depart="145" departLane = "2" departSpeed="11.180000"/>
	<vehicle id="L_78" type="car7" route="route2_3" depart="147" departLane = "2" departSpeed="11.180000"/>
	<vehicle id="L_79" type="car9" route="route2_3" depart="148" departLane = "2" departSpeed="11.180000"/>
	<vehicle id="L_80" type="car6" route="route4_1" depart="150" departLane = "0" departSpeed="11.180000"/>
	<vehicle id="S_81" type="car8" route="route3_1" depart="151" departLane = "0" departSpeed="11.180000"/>
	<vehicle id="L_82" type="car7" route="route2_3" depart="153" departLane = "0" departSpeed="11.180000"/>
	<vehicle id="R_83" type="car6" route="route2_1" depart="154" departLane = "0" departSpeed="11.180000"/>
	<vehicle id="S_84" type="car5" route="route3_1" depart="157" departLane = "2" departSpeed="11.180000"/>
	<vehicle id="L_85" type="car8" route="route4_1" depart="157" departLane = "1" departSpeed="11.180000"/>
	<vehicle id="S_86" type="car8" route="route1_3" depart="158" departLane = "1" departSpeed="11.180000"/>
	<vehicle id="L_87" type="car6" route="route3_4" depart="158" departLane = "0" departSpeed="11.180000"/>
	<vehicle id="S_88" type="car8" route="route4_2" depart="158" departLane = "0" departSpeed="11.180000"/>
	<vehicle id="R_89" type="car9" route="route3_2" depart="162" departLane = "1" departSpeed="11.180000"/>
	<vehicle id="L_90" type="car5" route="route4_1" depart="164" departLane = "2" departSpeed="11.180000"/>
	<vehicle id="R_91" type="car9" route="route2_1" depart="166" departLane = "2" departSpeed="11.180000"/>
	<vehicle id="L_92" type="car7" route="route4_1" depart="166" departLane = "1" departSpeed="11.180000"/>
	<vehicle id="R_93" type="car9" route="route1_4" depart="167" departLane = "2" departSpeed="11.180000"/>
	<vehicle id="L_94" type="car8" route="route3_4" depart="171" departLane = "0" departSpeed="11.180000"/>
	<vehicle id="L_95" type="car7" route="route2_3" depart="176" departLane = "2" departSpeed="11.180000"/>
	<vehicle id="S_96" type="car9" route="route1_3" depart="179" departLane = "0" departSpeed="11.180000"/>
	<vehicle id="L_97" type="car9" route="route1_2" depart="183" departLane = "2" departSpeed="11.180000"/>
	<vehicle id="R_98" type="car6" route="route2_1" depart="183" departLane = "2" departSpeed="11.180000"/>
	<vehicle id="L_99" type="car5" route="route1_2" depart="184" departLane = "0" departSpeed="11.180000"/>
	<vehicle id="R_100" type="car7" route="route2_1" depart="184" departLane = "2" departSpeed="11.180000"/>
	<vehicle id="L_101" type="car7" route="route3_4" depart="184" departLane = "0" departSpeed="11.180000"/>
	<vehicle id="R_102" type="car8" route="route1_4" depart="189" departLane = "0" departSpeed="11.180000"/>
	<vehicle id="R_103" type="car6" route="route1_4" depart="191" departLane = "0" departSpeed="11.180000"/>
	<vehicle id="L_104" type="car9" route="route3_4" depart="191" departLane = "0" departSpeed="11.180000"/>
	<vehicle id="S_105" type="car5" route="route1_3" depart="192" departLane = "2" departSpeed="11.180000"/>
	<vehicle id="S_106" type="car8" route="route1_3" depart="194" departLane = "0" departSpeed="11.180000"/>
	<vehicle id="S_107" type="car6" route="route2_4" depart="194" departLane = "1" departSpeed="11.180000"/>
	<vehicle id="L_108" type="car7" route="route2_3" depart="196" departLane = "2" departSpeed="11.180000"/>
	<vehicle id="R_109" type="car5" route="route1_4" depart="199" departLane = "2" departSpeed="11.180000"/>
	<vehicle id="S_110" type="car6" route="route1_3" depart="202" departLane = "1" departSpeed="11.180000"/>
	<vehicle id="R_111" type="car9" route="route2_1" depart="204" departLane = "0" departSpeed="11.180000"/>
	<vehicle id="R_112" type="car8" route="route3_2" depart="207" departLane = "2" departSpeed="11.180000"/>
	<vehicle id="L_113" type="car7" route="route1_2" depart="209" departLane = "1" departSpeed="11.180000"/>
	<vehicle id="R_114" type="car9" route="route3_2" depart="210" departLane = "2" departSpeed="11.180000"/>
	<vehicle id="S_115" type="car6" route="route3_1" depart="217" departLane = "2" departSpeed="11.180000"/>
	<vehicle id="R_116" type="car6" route="route2_1" depart="220" departLane = "1" departSpeed="11.180000"/>
	<vehicle id="S_117" type="car8" route="route2_4" depart="224" departLane = "0" departSpeed="11.180000"/>
	<vehicle id="R_118" type="car6" route="route3_2" depart="224" departLane = "1" departSpeed="11.180000"/>
	<vehicle id="R_119" type="car7" route="route2_1" depart="226" departLane = "1" departSpeed="11.180000"/>
	<vehicle id="R_120" type="car9" route="route3_2" depart="227" departLane = "1" departSpeed="11.180000"/>
	<vehicle id="S_121" type="car7" route="route1_3" depart="228" departLane = "1" departSpeed="11.180000"/>
	<vehicle id="R_122" type="car5" route="route2_1" depart="228" departLane = "0" departSpeed="11.180000"/>
	<vehicle id="S_123" type="car6" route="route4_2" depart="229" departLane = "1" departSpeed="11.180000"/>
	<vehicle id="S_124" type="car6" route="route4_2" depart="231" departLane = "0" departSpeed="11.180000"/>
	<vehicle id="S_125" type="car7" route="route2_4" depart="235" departLane = "0" departSpeed="11.180000"/>
	<vehicle id="L_126" type="car6" route="route1_2" depart="238" departLane = "2" departSpeed="11.180000"/>
	<vehicle id="L_127" type="car5" route="route3_4" depart="238" departLane = "1" departSpeed="11.180000"/>
	<vehicle id="S_128" type="car9" route="route1_3" depart="241" departLane = "0" departSpeed="11.180000"/>
	<vehicle id="L_129" type="car9" route="route4_1" depart="241" departLane = "1" departSpeed="11.180000"/>
	<vehicle id="S_130" type="car5" route="route3_1" depart="243" departLane = "1" departSpeed="11.180000"/>
	<vehicle id="S_131" type="car5" route="route4_2" depart="244" departLane = "2" departSpeed="11.180000"/>
	<vehicle id="L_132" type="car5" route="route1_2" depart="250" departLane = "0" departSpeed="11.180000"/>
	<vehicle id="L_133" type="car6" route="route2_3" depart="250" departLane = "0" departSpeed="11.180000"/>
	<vehicle id="S_134" type="car5" route="route4_2" depart="253" departLane = "2" departSpeed="11.180000"/>
	<vehicle id="S_135" type="car5" route="route2_4" depart="254" departLane = "1" departSpeed="11.180000"/>
	<vehicle id="S_136" type="car7" route="route4_2" depart="254" departLane = "2" departSpeed="11.180000"/>
	<vehicle id="S_137" type="car6" route="route2_4" depart="255" departLane = "1" departSpeed="11.180000"/>
	<vehicle id="S_138" type="car8" route="route4_2" depart="257" departLane = "2" departSpeed="11.180000"/>
	<vehicle id="S_139" type="car7" route="route1_3" depart="258" departLane = "0" departSpeed="11.180000"/>
	<vehicle id="R_140" type="car9" route="route1_4" depart="262" departLane = "1" departSpeed="11.180000"/>
	<vehicle id="S_141" type="car5" route="route2_4" depart="262" departLane = "0" departSpeed="11.180000"/>
	<vehicle id="S_142" type="car6" route="route3_1" depart="266" departLane = "1" departSpeed="11.180000"/>
	<vehicle id="R_143" type="car8" route="route2_1" depart="269" departLane = "2" departSpeed="11.180000"/>
	<vehicle id="R_144" type="car9" route="route1_4" depart="273" departLane = "1" departSpeed="11.180000"/>
	<vehicle id="R_145" type="car7" route="route1_4" depart="275" departLane = "1" departSpeed="11.180000"/>
	<vehicle id="L_146" type="car6" route="route2_3" depart="276" departLane = "1" departSpeed="11.180000"/>
	<vehicle id="R_147" type="car8" route="route2_1" depart="277" departLane = "2" departSpeed="11.180000"/>
	<vehicle id="R_148" type="car7" route="route3_2" depart="277" departLane = "1" departSpeed="11.180000"/>
	<vehicle id="R_149" type="car6" route="route3_2" depart="278" departLane = "1" departSpeed="11.180000"/>
	<vehicle id="L_150" type="car8" route="route4_1" depart="278" departLane = "2" departSpeed="11.180000"/>
	<vehicle id="R_151" type="car9" route="route4_3" depart="279" departLane = "1" departSpeed="11.180000"/>
	<vehicle id="L_152" type="car8" route="route1_2" depart="281" departLane = "0" departSpeed="11.180000"/>
	<vehicle id="S_153" type="car7" route="route3_1" depart="282" departLane = "1" departSpeed="11.180000"/>
	<vehicle id="L_154" type="car9" route="route3_4" depart="287" departLane = "2" departSpeed="11.180000"/>
	<vehicle id="R_155" type="car6" route="route4_3" depart="287" departLane = "2" departSpeed="11.180000"/>
	<vehicle id="R_156" type="car5" route="route3_2" depart="289" departLane = "0" departSpeed="11.180000"/>
	<vehicle id="S_157" type="car8" route="route4_2" depart="289" departLane = "1" departSpeed="11.180000"/>
	<vehicle id="S_158" type="car6" route="route2_4" depart="293" departLane = "2" departSpeed="11.180000"/>
	<vehicle id="L_159" type="car8" route="route1_2" depart="295" departLane = "0" departSpeed="11.180000"/>
	<vehicle id="R_160" type="car5" route="route4_3" depart="295" departLane = "1" departSpeed="11.180000"/>
	<vehicle id="S_161" type="car5" route="route1_3" depart="297" departLane = "2" departSpeed="11.180000"/>
	<vehicle id="R_162" type="car6" route="route1_4" depart="301" departLane = "1" departSpeed="11.180000"/>
	<vehicle id="R_163" type="car5" route="route1_4" depart="302" departLane = "2" departSpeed="11.180000"/>
	<vehicle id="R_164" type="car9" route="route1_4" depart="303" departLane = "1" departSpeed="11.180000"/>
	<vehicle id="R_165" type="car9" route="route1_4" depart="304" departLane = "1" departSpeed="11.180000"/>
	<vehicle id="L_166" type="car9" route="route2_3" depart="306" departLane = "1" departSpeed="11.180000"/>
	<vehicle id="S_167" type="car9" route="route4_2" depart="306" departLane = "1" departSpeed="11.180000"/>
	<vehicle id="R_168" type="car9" route="route2_1" depart="310" departLane = "1" departSpeed="11.180000"/>
	<vehicle id="L_169" type="car5" route="route1_2" depart="313" departLane = "1" departSpeed="11.180000"/>
	<vehicle id="S_170" type="car8" route="route4_2" depart="314" departLane = "1" departSpeed="11.180000"/>
	<vehicle id="L_171" type="car7" route="route3_4" depart="317" departLane = "1" departSpeed="11.180000"/>
	<vehicle id="L_172" type="car8" route="route4_1" depart="318" departLane = "0" departSpeed="11.180000"/>
	<vehicle id="L_173" type="car7" route="route1_2" depart="319" departLane = "0" departSpeed="11.180000"/>
	<vehicle id="R_174" type="car5" route="route1_4" depart="320" departLane = "0" departSpeed="11.180000"/>
	<vehicle id="L_175" type="car9" route="route3_4" depart="320" departLane = "0" departSpeed="11.180000"/>
	<vehicle id="S_176" type="car6" route="route2_4" depart="321" departLane = "1" departSpeed="11.180000"/>
	<vehicle id="R_177" type="car8" route="route4_3" depart="323" departLane = "0" departSpeed="11.180000"/>
	<vehicle id="R_178" type="car5" route="route2_1" depart="324" departLane = "1" departSpeed="11.180000"/>
	<vehicle id="L_179" type="car5" route="route1_2" depart="326" departLane = "0" departSpeed="11.180000"/>
	<vehicle id="L_180" type="car8" route="route3_4" depart="328" departLane = "0" departSpeed="11.180000"/>
	<vehicle id="S_181" type="car8" route="route4_2" depart="328" departLane = "1" departSpeed="11.180000"/>
	<vehicle id="S_182" type="car7" route="route1_3" depart="330" departLane = "2" departSpeed="11.180000"/>
	<vehicle id="L_183" type="car6" route="route3_4" depart="336" departLane = "0" departSpeed="11.180000"/>
	<vehicle id="R_184" type="car9" route="route1_4" depart="339" departLane = "1" departSpeed="11.180000"/>
	<vehicle id="S_185" type="car9" route="route2_4" depart="342" departLane = "1" departSpeed="11.180000"/>
	<vehicle id="S_186" type="car6" route="route2_4" depart="343" departLane = "0" departSpeed="11.180000"/>
	<vehicle id="S_187" type="car5" route="route4_2" depart="350" departLane = "0" departSpeed="11.180000"/>
	<vehicle id="R_188" type="car6" route="route2_1" depart="352" departLane = "2" departSpeed="11.180000"/>
	<vehicle id="L_189" type="car8" route="route3_4" depart="353" departLane = "2" departSpeed="11.180000"/>
	<vehicle id="S_190" type="car6" route="route4_2" depart="354" departLane = "0" departSpeed="11.180000"/>
	<vehicle id="L_191" type="car7" route="route3_4" depart="356" departLane = "1" departSpeed="11.180000"/>
	<vehicle id="L_192" type="car9" route="route4_1" depart="358" departLane = "1" departSpeed="11.180000"/>
	<vehicle id="R_193" type="car8" route="route2_1" depart="359" departLane = "2" departSpeed="11.180000"/>
	<vehicle id="R_194" type="car6" route="route2_1" depart="360" departLane = "2" departSpeed="11.180000"/>
	<vehicle id="S_195" type="car6" route="route1_3" depart="361" departLane = "1" departSpeed="11.180000"/>
	<vehicle id="L_196" type="car7" route="route2_3" depart="361" departLane = "1" departSpeed="11.180000"/>
	<vehicle id="L_197" type="car7" route="route2_3" depart="364" departLane = "1" departSpeed="11.180000"/>
	<vehicle id="L_198" type="car8" route="route1_2" depart="365" departLane = "2" departSpeed="11.180000"/>
	<vehicle id="S_199" type="car9" route="route1_3" depart="366" departLane = "0" departSpeed="11.180000"/>
	<vehicle id="L_200" type="car7" route="route3_4" depart="366" departLane = "0" departSpeed="11.180000"/>
	<vehicle id="R_201" type="car6" route="route4_3" depart="366" departLane = "2" departSpeed="11.180000"/>
	<vehicle id="S_202" type="car7" route="route3_1" depart="371" departLane = "1" departSpeed="11.180000"/>
	<vehicle id="L_203" type="car7" route="route3_4" depart="372" departLane = "0" departSpeed="11.180000"/>
	<vehicle id="L_204" type="car9" route="route2_3" depart="374" departLane = "2" departSpeed="11.180000"/>
	<vehicle id="L_205" type="car8" route="route4_1" depart="374" departLane = "2" departSpeed="11.180000"/>
	<vehicle id="R_206" type="car7" route="route2_1" depart="376" departLane = "0" departSpeed="11.180000"/>
	<vehicle id="S_207" type="car7" route="route3_1" depart="376" departLane = "2" departSpeed="11.180000"/>
	<vehicle id="S_208" type="car6" route="route3_1" depart="377" departLane = "2" departSpeed="11.180000"/>
	<vehicle id="R_209" type="car6" route="route4_3" depart="380" departLane = "1" departSpeed="11.180000"/>
	<vehicle id="R_210" type="car9" route="route2_1" depart="383" departLane = "1" departSpeed="11.180000"/>
	<vehicle id="L_211" type="car6" route="route4_1" depart="391" departLane = "1" departSpeed="11.180000"/>
	<vehicle id="S_212" type="car8" route="route1_3" depart="392" departLane = "0" departSpeed="11.180000"/>
	<vehicle id="L_213" type="car5" route="route3_4" depart="393" departLane = "0" departSpeed="11.180000"/>
	<vehicle id="L_214" type="car6" route="route4_1" depart="393" departLane = "2" departSpeed="11.180000"/>
	<vehicle id="R_215" type="car9" route="route4_3" depart="396" departLane = "0" departSpeed="11.180000"/>
	<vehicle id="L_216" type="car6" route="route1_2" depart="401" departLane = "2" departSpeed="11.180000"/>
	<vehicle id="S_217" type="car5" route="route2_4" depart="410" departLane = "2" departSpeed="11.180000"/>
	<vehicle id="S_218" type="car7" route="route4_2" depart="413" departLane = "0" departSpeed="11.180000"/>
	<vehicle id="R_219" type="car5" route="route2_1" depart="415" departLane = "1" departSpeed="11.180000"/>
	<vehicle id="S_220" type="car7" route="route1_3" depart="416" departLane = "2" departSpeed="11.180000"/>
	<vehicle id="R_221" type="car5" route="route3_2" depart="419" departLane = "2" departSpeed="11.180000"/>
	<vehicle id="L_222" type="car7" route="route3_4" depart="420" departLane = "1" departSpeed="11.180000"/>
	<vehicle id="R_223" type="car7" route="route4_3" depart="421" departLane = "0" departSpeed="11.180000"/>
	<vehicle id="L_224" type="car5" route="route4_1" depart="423" departLane = "0" departSpeed="11.180000"/>
	<vehicle id="R_225" type="car8" route="route1_4" depart="427" departLane = "0" departSpeed="11.180000"/>
	<vehicle id="R_226" type="car9" route="route3_2" depart="428" departLane = "1" departSpeed="11.180000"/>
	<vehicle id="L_227" type="car5" route="route2_3" depart="429" departLane = "2" departSpeed="11.180000"/>
	<vehicle id="R_228" type="car6" route="route1_4" depart="431" departLane = "2" departSpeed="11.180000"/>
	<vehicle id="R_229" type="car9" route="route2_1" depart="431" departLane = "1" departSpeed="11.180000"/>
	<vehicle id="L_230" type="car6" route="route4_1" depart="432" departLane = "1" departSpeed="11.180000"/>
	<vehicle id="L_231" type="car9" route="route3_4" depart="434" departLane = "1" departSpeed="11.180000"/>
	<vehicle id="S_232" type="car5" route="route2_4" depart="437" departLane = "2" departSpeed="11.180000"/>
	<vehicle id="L_233" type="car6" route="route1_2" depart="440" departLane = "1" departSpeed="11.180000"/>
	<vehicle id="L_234" type="car7" route="route4_1" depart="440" departLane = "0" departSpeed="11.180000"/>
	<vehicle id="S_235" type="car8" route="route1_3" depart="442" departLane = "1" departSpeed="11.180000"/>
	<vehicle id="S_236" type="car9" route="route1_3" depart="445" departLane = "2" departSpeed="11.180000"/>
	<vehicle id="S_237" type="car9" route="route2_4" depart="445" departLane = "0" departSpeed="11.180000"/>
	<vehicle id="L_238" type="car5" route="route3_4" depart="449" departLane = "2" departSpeed="11.180000"/>
	<vehicle id="S_239" type="car5" route="route4_2" depart="450" departLane = "2" departSpeed="11.180000"/>
	<vehicle id="R_240" type="car6" route="route3_2" depart="451" departLane = "1" departSpeed="11.180000"/>
	<vehicle id="L_241" type="car9" route="route4_1" depart="457" departLane = "1" departSpeed="11.180000"/>
	<vehicle id="S_242" type="car8" route="route1_3" depart="465" departLane = "1" departSpeed="11.180000"/>
	<vehicle id="L_243" type="car6" route="route2_3" depart="468" departLane = "0" departSpeed="11.180000"/>
	<vehicle id="R_244" type="car7" route="route2_1" depart="469" departLane = "2" departSpeed="11.180000"/>
	<vehicle id="S_245" type="car7" route="route3_1" depart="471" departLane = "0" departSpeed="11.180000"/>
	<vehicle id="S_246" type="car9" route="route1_3" depart="475" departLane = "0" departSpeed="11.180000"/>
	<vehicle id="L_247" type="car7" route="route4_1" depart="476" departLane = "0" departSpeed="11.180000"/>
	<vehicle id="L_248" type="car8" route="route1_2" depart="477" departLane = "2" departSpeed="11.180000"/>
	<vehicle id="S_249" type="car9" route="route3_1" depart="484" departLane = "2" departSpeed="11.180000"/>
	<vehicle id="S_250" type="car6" route="route4_2" depart="485" departLane = "0" departSpeed="11.180000"/>
	<vehicle id="R_251" type="car7" route="route4_3" depart="489" departLane = "1" departSpeed="11.180000"/>
	<vehicle id="R_252" type="car5" route="route3_2" depart="491" departLane = "2" departSpeed="11.180000"/>
	<vehicle id="R_253" type="car8" route="route1_4" depart="495" departLane = "1" departSpeed="11.180000"/>
	<vehicle id="R_254" type="car5" route="route2_1" depart="498" departLane = "1" departSpeed="11.180000"/>
	<vehicle id="L_255" type="car6" route="route2_3" depart="499" departLane = "0" departSpeed="11.180000"/>
	<vehicle id="S_256" type="car8" route="route3_1" depart="499" departLane = "1" departSpeed="11.180000"/>
	<vehicle id="S_257" type="car6" route="route4_2" depart="499" departLane = "2" departSpeed="11.180000"/>
	<vehicle id="R_258" type="car9" route="route3_2" depart="500" departLane = "0" departSpeed="11.180000"/>
	<vehicle id="L_259" type="car6" route="route3_4" depart="503" departLane = "1" departSpeed="11.180000"/>
	<vehicle id="L_260" type="car8" route="route1_2" depart="504" departLane = "0" departSpeed="11.180000"/>
	<vehicle id="L_261" type="car7" route="route3_4" depart="505" departLane = "1" departSpeed="11.180000"/>
	<vehicle id="L_262" type="car8" route="route2_3" depart="508" departLane = "0" departSpeed="11.180000"/>
	<vehicle id="R_263" type="car6" route="route1_4" depart="509" departLane = "1" departSpeed="11.180000"/>
	<vehicle id="R_264" type="car5" route="route1_4" depart="513" departLane = "1" departSpeed="11.180000"/>
	<vehicle id="R_265" type="car5" route="route4_3" depart="517" departLane = "1" departSpeed="11.180000"/>
	<vehicle id="L_266" type="car9" route="route1_2" depart="518" departLane = "0" departSpeed="11.180000"/>
	<vehicle id="S_267" type="car9" route="route2_4" depart="518" departLane = "2" departSpeed="11.180000"/>
	<vehicle id="L_268" type="car9" route="route3_4" depart="518" departLane = "1" departSpeed="11.180000"/>
	<vehicle id="S_269" type="car9" route="route4_2" depart="519" departLane = "2" departSpeed="11.180000"/>
	<vehicle id="R_270" type="car7" route="route3_2" depart="523" departLane = "0" departSpeed="11.180000"/>