<routes>

	<vType id="car5" accel="100.0" decel="100.0" sigma="0.0" length="5" minGap="3.000000" maxSpeed="11.180000" tau="0.100000" carFollowModel="CACC" color="255,255,255"/>
	<vType id="car6" accel="100.0" decel="100.0" sigma="0.0" length="6" minGap="3.000000" maxSpeed="11.180000" tau="0.100000" carFollowModel="CACC" color="255,255,255"/>
	<vType id="car7" accel="100.0" decel="100.0" sigma="0.0" length="7" minGap="3.000000" maxSpeed="11.180000" tau="0.100000" carFollowModel="CACC" color="255,255,255"/>
	<vType id="car8" accel="100.0" decel="100.0" sigma="0.0" length="8" minGap="3.000000" maxSpeed="11.180000" tau="0.100000" carFollowModel="CACC" color="255,255,255"/>
	<vType id="car9" accel="100.0" decel="100.0" sigma="0.0" length="9" minGap="3.000000" maxSpeed="11.180000" tau="0.100000" carFollowModel="CACC" color="255,255,255"/>

	<route id="route1_2" edges=" 1 -2"/>
	<route id="route1_3" edges=" 1 -3"/>
	<route id="route1_4" edges=" 1 -4"/>
	<route id="route2_1" edges=" 2 -1"/>
	<route id="route2_3" edges=" 2 -3"/>
	<route id="route2_4" edges=" 2 -4"/>
	<route id="route3_1" edges=" 3 -1"/>
	<route id="route3_2" edges=" 3 -2"/>
	<route id="route3_4" edges=" 3 -4"/>
	<route id="route4_1" edges=" 4 -1"/>
	<route id="route4_2" edges=" 4 -2"/>
	<route id="route4_3" edges=" 4 -3"/>

	<vehicle id="S_0" type="car6" route="route4_2" depart="8" departLane = "2" departSpeed="11.180000"/>
	<vehicle id="R_1" type="car9" route="route3_2" depart="9" departLane = "1" departSpeed="11.180000"/>
	<vehicle id="S_2" type="car7" route="route1_3" depart="12" departLane = "0" departSpeed="11.180000"/>
	<vehicle id="S_3" type="car9" route="route2_4" depart="17" departLane = "2" departSpeed="11.180000"/>
	<vehicle id="S_4" type="car7" route="route2_4" depart="22" departLane = "1" departSpeed="11.180000"/>
	<vehicle id="S_5" type="car9" route="route3_1" depart="25" departLane = "1" departSpeed="11.180000"/>
	<vehicle id="S_6" type="car8" route="route2_4" depart="26" departLane = "1" departSpeed="11.180000"/>
	<vehicle id="R_7" type="car9" route="route3_2" depart="27" departLane = "0" departSpeed="11.180000"/>
	<vehicle id="R_8" type="car5" route="route1_4" depart="29" departLane = "1" departSpeed="11.180000"/>
	<vehicle id="S_9" type="car9" route="route4_2" depart="30" departLane = "0" departSpeed="11.180000"/>
	<vehicle id="R_10" type="car9" route="route1_4" depart="33" departLane = "2" departSpeed="11.180000"/>
	<vehicle id="S_11" type="car6" route="route4_2" depart="36" departLane = "2" departSpeed="11.180000"/>
	<vehicle id="S_12" type="car6" route="route1_3" depart="37" departLane = "0" departSpeed="11.180000"/>
	<vehicle id="R_13" type="car6" route="route1_4" depart="40" departLane = "0" departSpeed="11.180000"/>
	<vehicle id="L_14" type="car6" route="route4_1" depart="42" departLane = "1" departSpeed="11.180000"/>
	<vehicle id="L_15" type="car9" route="route4_1" depart="46" departLane = "2" departSpeed="11.180000"/>
	<vehicle id="L_16" type="car7" route="route2_3" depart="48" departLane = "2" departSpeed="11.180000"/>
	<vehicle id="R_17" type="car8" route="route3_2" depart="48" departLane = "0" departSpeed="11.180000"/>
	<vehicle id="R_18" type="car7" route="route2_1" depart="50" departLane = "0" departSpeed="11.180000"/>
	<vehicle id="R_19" type="car8" route="route3_2" depart="52" departLane = "0" departSpeed="11.180000"/>
	<vehicle id="R_20" type="car8" route="route4_3" depart="53" departLane = "2" departSpeed="11.180000"/>
	<vehicle id="R_21" type="car6" route="route1_4" depart="56" departLane = "0" departSpeed="11.180000"/>
	<vehicle id="S_22" type="car9" route="route2_4" depart="57" departLane = "0" departSpeed="11.180000"/>
	<vehicle id="R_23" type="car7" route="route1_4" depart="59" departLane = "0" departSpeed="11.180000"/>
	<vehicle id="L_24" type="car6" route="route2_3" depart="59" departLane = "1" departSpeed="11.180000"/>
	<vehicle id="S_25" type="car7" route="route4_2" depart="59" departLane = "2" departSpeed="11.180000"/>
	<vehicle id="L_26" type="car8" route="route3_4" depart="63" departLane = "0" departSpeed="11.180000"/>
	<vehicle id="R_27" type="car6" route="route4_3" depart="63" departLane = "0" departSpeed="11.180000"/>
	<vehicle id="S_28" type="car8" route="route1_3" depart="67" departLane = "2" departSpeed="11.180000"/>
	<vehicle id="S_29" type="car6" route="route4_2" depart="68" departLane = "2" departSpeed="11.180000"/>
	<vehicle id="L_30" type="car6" route="route1_2" depart="75" departLane = "0" departSpeed="11.180000"/>
	<vehicle id="R_31" type="car9" route="route3_2" depart="76" departLane = "0" departSpeed="11.180000"/>
	<vehicle id="S_32" type="car5" route="route4_2" depart="76" departLane = "0" departSpeed="11.180000"/>
	<vehicle id="S_33" type="car6" route="route1_3" depart="77" departLane = "2" departSpeed="11.180000"/>
	<vehicle id="L_34" type="car7" route="route3_4" depart="83" departLane = "0" departSpeed="11.180000"/>
	<vehicle id="S_35" type="car9" route="route1_3" depart="84" departLane = "2" departSpeed="11.180000"/>
	<vehicle id="S_36" type="car5" route="route1_3" depart="85" departLane = "1" departSpeed="11.180000"/>
	<vehicle id="S_37" type="car7" route="route4_2" depart="85" departLane = "0" departSpeed="11.180000"/>
	<vehicle id="R_38" type="car5" route="route2_1" depart="88" departLane = "1" departSpeed="11.180000"/>
	<vehicle id="R_39" type="car8" route="route3_2" depart="88" departLane = "1" departSpeed="11.180000"/>
	<vehicle id="S_40" type="car9" route="route2_4" depart="96" departLane = "0" departSpeed="11.180000"/>
	<vehicle id="S_41" type="car9" route="route1_3" depart="98" departLane = "2" departSpeed="11.180000"/>
	<vehicle id="R_42" type="car8" route="route4_3" depart="100" departLane = "2" departSpeed="11.180000"/>
	<vehicle id="L_43" type="car8" route="route1_2" depart="101" departLane = "1" departSpeed="11.180000"/>
	<vehicle id="R_44" type="car9" route="route2_1" depart="101" departLane = "2" departSpeed="11.180000"/>
	<vehicle id="R_45" type="car6" route="route4_3" depart="101" departLane = "0" departSpeed="11.180000"/>
	<vehicle id="L_46" type="car5" route="route1_2" depart="102" departLane = "1" departSpeed="11.180000"/>
	<vehicle id="L_47" type="car6" route="route4_1" depart="102" departLane = "2" departSpeed="11.180000"/>
	<vehicle id="L_48" type="car5" route="route1_2" depart="104" departLane = "1" departSpeed="11.180000"/>
	<vehicle id="S_49" type="car5" route="route1_3" depart="111" departLane = "0" departSpeed="11.180000"/>
	<vehicle id="S_50" type="car7" route="route2_4" depart="111" departLane = "0" departSpeed="11.180000"/>
	<vehicle id="S_51" type="car6" route="route4_2" depart="112" departLane = "1" departSpeed="11.180000"/>
	<vehicle id="R_52" type="car7" route="route2_1" depart="113" departLane = "1" departSpeed="11.180000"/>
	<vehicle id="L_53" type="car8" route="route2_3" depart="119" departLane = "2" departSpeed="11.180000"/>
	<vehicle id="L_54" type="car8" route="route3_4" depart="119" departLane = "0" departSpeed="11.180000"/>
	<vehicle id="L_55" type="car7" route="route1_2" depart="123" departLane = "0" departSpeed="11.180000"/>
	<vehicle id="S_56" type="car6" route="route2_4" depart="125" departLane = "2" departSpeed="11.180000"/>
	<vehicle id="L_57" type="car8" route="route3_4" depart="133" departLane = "0" departSpeed="11.180000"/>
	<vehicle id="S_58" type="car5" route="route4_2" depart="133" departLane = "1" departSpeed="11.180000"/>
	<vehicle id="L_59" type="car5" route="route3_4" depart="134" departLane = "1" departSpeed="11.180000"/>
	<vehicle id="L_60" type="car8" route="route4_1" depart="135" departLane = "0" departSpeed="11.180000"/>
	<vehicle id="L_61" type="car6" route="route1_2" depart="143" departLane = "1" departSpeed="11.180000"/>
	<vehicle id="S_62" type="car5" route="route2_4" depart="143" departLane = "0" departSpeed="11.180000"/>
	<vehicle id="L_63" type="car5" route="route4_1" depart="148" departLane = "0" departSpeed="11.180000"/>
	<vehicle id="L_64" type="car6" route="route4_1" depart="152" departLane = "0" departSpeed="11.180000"/>
	<vehicle id="S_65" type="car5" route="route4_2" depart="155" departLane = "2" departSpeed="11.180000"/>
	<vehicle id="R_66" type="car9" route="route3_2" depart="156" departLane = "2" departSpeed="11.180000"/>
	<vehicle id="L_67" type="car8" route="route2_3" depart="157" departLane = "0" departSpeed="11.180000"/>
	<vehicle id="R_68" type="car8" route="route2_1" depart="158" departLane = "1" departSpeed="11.180000"/>
	<vehicle id="L_69" type="car7" route="route4_1" depart="158" departLane = "0" departSpeed="11.180000"/>
	<vehicle id="R_70" type="car6" route="route2_1" depart="163" departLane = "2" departSpeed="11.180000"/>
	<vehicle id="S_71" type="car6" route="route2_4" depart="170" departLane = "0" departSpeed="11.180000"/>
	<vehicle id="R_72" type="car8" route="route1_4" depart="171" departLane = "2" departSpeed="11.180000"/>
	<vehicle id="S_73" type="car8" route="route2_4" depart="175" departLane = "0" departSpeed="11.180000"/>
	<vehicle id="R_74" type="car8" route="route3_2" depart="178" departLane = "0" departSpeed="11.180000"/>
	<vehicle id="L_75" type="car5" route="route4_1" depart="181" departLane = "1" departSpeed="11.180000"/>
	<vehicle id="L_76" type="car8" route="route1_2" depart="182" departLane = "0" departSpeed="11.180000"/>
	<vehicle id="L_77" type="car9" route="route2_3" depart="182" departLane = "0" departSpeed="11.180000"/>
	<vehicle id="L_78" type="car7" route="route3_4" depart="186" departLane = "2" departSpeed="11.180000"/>
	<vehicle id="L_79" type="car9" route="route1_2" depart="187" departLane = "0" departSpeed="11.180000"/>
	<vehicle id="L_80" type="car5" route="route1_2" depart="189" departLane = "2" departSpeed="11.180000"/>
	<vehicle id="S_81" type="car7" route="route1_3" depart="190" departLane = "2" departSpeed="11.180000"/>
	<vehicle id="L_82" type="car5" route="route1_2" depart="192" departLane = "2" departSpeed="11.180000"/>
	<vehicle id="R_83" type="car5" route="route2_1" depart="192" departLane = "0" departSpeed="11.180000"/>
	<vehicle id="S_84" type="car5" route="route2_4" depart="197" departLane = "2" departSpeed="11.180000"/>
	<vehicle id="L_85" type="car7" route="route2_3" depart="203" departLane = "2" departSpeed="11.180000"/>
	<vehicle id="S_86" type="car5" route="route2_4" depart="205" departLane = "0" departSpeed="11.180000"/>
	<vehicle id="L_87" type="car9" route="route1_2" depart="217" departLane = "1" departSpeed="11.180000"/>
	<vehicle id="S_88" type="car8" route="route4_2" depart="219" departLane = "1" departSpeed="11.180000"/>
	<vehicle id="R_89" type="car5" route="route3_2" depart="223" departLane = "0" departSpeed="11.180000"/>
	<vehicle id="L_90" type="car9" route="route3_4" depart="225" departLane = "1" departSpeed="11.180000"/>
	<vehicle id="R_91" type="car7" route="route3_2" depart="226" departLane = "1" departSpeed="11.180000"/>
	<vehicle id="L_92" type="car6" route="route4_1" depart="226" departLane = "1" departSpeed="11.180000"/>
	<vehicle id="R_93" type="car5" route="route1_4" depart="227" departLane = "0" departSpeed="11.180000"/>
	<vehicle id="L_94" type="car9" route="route3_4" depart="227" departLane = "2" departSpeed="11.180000"/>
	<vehicle id="L_95" type="car5" route="route2_3" depart="230" departLane = "0" departSpeed="11.180000"/>
	<vehicle id="S_96" type="car5" route="route2_4" depart="231" departLane = "2" departSpeed="11.180000"/>
	<vehicle id="L_97" type="car9" route="route1_2" depart="233" departLane = "1" departSpeed="11.180000"/>
	<vehicle id="R_98" type="car8" route="route4_3" depart="235" departLane = "1" departSpeed="11.180000"/>
	<vehicle id="L_99" type="car9" route="route1_2" depart="236" departLane = "2" departSpeed="11.180000"/>
	<vehicle id="R_100" type="car7" route="route2_1" depart="236" departLane = "1" departSpeed="11.180000"/>
	<vehicle id="L_101" type="car6" route="route2_3" depart="239" departLane = "1" departSpeed="11.180000"/>
	<vehicle id="R_102" type="car5" route="route2_1" depart="241" departLane = "2" departSpeed="11.180000"/>
	<vehicle id="R_103" type="car6" route="route2_1" depart="242" departLane = "0" departSpeed="11.180000"/>
	<vehicle id="L_104" type="car8" route="route3_4" depart="242" departLane = "2" departSpeed="11.180000"/>
	<vehicle id="S_105" type="car6" route="route2_4" depart="243" departLane = "0" departSpeed="11.180000"/>
	<vehicle id="S_106" type="car5" route="route1_3" depart="245" departLane = "2" departSpeed="11.180000"/>
	<vehicle id="S_107" type="car7" route="route1_3" depart="247" departLane = "1" departSpeed="11.180000"/>
	<vehicle id="L_108" type="car9" route="route4_1" depart="247" departLane = "0" departSpeed="11.180000"/>
	<vehicle id="R_109" type="car6" route="route1_4" depart="249" departLane = "2" departSpeed="11.180000"/>
	<vehicle id="S_110" type="car8" route="route4_2" depart="249" departLane = "2" departSpeed="11.180000"/>
	<vehicle id="R_111" type="car5" route="route2_1" depart="250" departLane = "1" departSpeed="11.180000"/>
	<vehicle id="R_112" type="car6" route="route3_2" depart="253" departLane = "0" departSpeed="11.180000"/>
	<vehicle id="L_113" type="car5" route="route4_1" depart="255" departLane = "2" departSpeed="11.180000"/>
	<vehicle id="R_114" type="car7" route="route4_3" depart="256" departLane = "2" departSpeed="11.180000"/>
	<vehicle id="S_115" type="car5" route="route1_3" depart="257" departLane = "2" departSpeed="11.180000"/>
	<vehicle id="R_116" type="car9" route="route2_1" depart="258" departLane = "1" departSpeed="11.180000"/>
	<vehicle id="S_117" type="car8" route="route4_2" depart="259" departLane = "1" departSpeed="11.180000"/>
	<vehicle id="R_118" type="car7" route="route2_1" depart="263" departLane = "1" departSpeed="11.180000"/>
	<vehicle id="R_119" type="car8" route="route4_3" depart="263" departLane = "0" departSpeed="11.180000"/>
	<vehicle id="R_120" type="car5" route="route4_3" depart="264" departLane = "2" departSpeed="11.180000"/>
	<vehicle id="S_121" type="car8" route="route1_3" depart="274" departLane = "2" departSpeed="11.180000"/>
	<vehicle id="R_122" type="car8" route="route3_2" depart="283" departLane = "1" departSpeed="11.180000"/>
	<vehicle id="S_123" type="car9" route="route4_2" depart="286" departLane = "2" departSpeed="11.180000"/>
	<vehicle id="S_124" type="car9" route="route3_1" depart="289" departLane = "2" departSpeed="11.180000"/>
	<vehicle id="S_125" type="car6" route="route1_3" depart="292" departLane = "0" departSpeed="11.180000"/>
	<vehicle id="L_126" type="car6" route="route2_3" depart="293" departLane = "1" departSpeed="11.180000"/>
	<vehicle id="L_127" type="car6" route="route1_2" depart="297" departLane = "0" departSpeed="11.180000"/>
	<vehicle id="S_128" type="car7" route="route2_4" depart="300" departLane = "2" departSpeed="11.180000"/>
	<vehicle id="L_129" type="car6" route="route2_3" depart="302" departLane = "0" departSpeed="11.180000"/>
	<vehicle id="S_130" type="car6" route="route2_4" depart="304" departLane = "1" departSpeed="11.180000"/>
	<vehicle id="S_131" type="car9" route="route4_2" depart="315" departLane = "0" departSpeed="11.180000"/>
	<vehicle id="L_132" type="car6" route="route1_2" depart="317" departLane = "0" departSpeed="11.180000"/>
	<vehicle id="L_133" type="car5" route="route3_4" depart="318" departLane = "1" departSpeed="11.180000"/>
	<vehicle id="S_134" type="car9" route="route2_4" depart="320" departLane = "2" departSpeed="11.180000"/>
	<vehicle id="S_135" type="car6" route="route3_1" depart="320" departLane = "0" departSpeed="11.180000"/>
	<vehicle id="S_136" type="car8" route="route2_4" depart="324" departLane = "2" departSpeed="11.180000"/>
	<vehicle id="S_137" type="car5" route="route1_3" depart="331" departLane = "2" departSpeed="11.180000"/>
	<vehicle id="S_138" type="car7" route="route3_1" depart="334" departLane = "0" departSpeed="11.180000"/>
	<vehicle id="S_139" type="car9" route="route3_1" depart="335" departLane = "2" departSpeed="11.180000"/>
	<vehicle id="R_140" type="car7" route="route1_4" depart="343" departLane = "0" departSpeed="11.180000"/>
	<vehicle id="S_141" type="car9" route="route2_4" depart="350" departLane = "0" departSpeed="11.180000"/>
	<vehicle id="S_142" type="car5" route="route3_1" depart="351" departLane = "2" departSpeed="11.180000"/>
	<vehicle id="R_143" type="car7" route="route4_3" depart="352" departLane = "2" departSpeed="11.180000"/>
	<vehicle id="R_144" type="car8" route="route1_4" depart="353" departLane = "1" departSpeed="11.180000"/>
	<vehicle id="R_145" type="car7" route="route3_2" depart="354" departLane = "2" departSpeed="11.180000"/>
	<vehicle id="L_146" type="car8" route="route3_4" depart="357" departLane = "0" departSpeed="11.180000"/>
	<vehicle id="R_147" type="car7" route="route1_4" depart="358" departLane = "2" departSpeed="11.180000"/>
	<vehicle id="R_148" type="car8" route="route4_3" depart="358" departLane = "1" departSpeed="11.180000"/>
	<vehicle id="R_149" type="car6" route="route2_1" depart="360" departLane = "0" departSpeed="11.180000"/>
	<vehicle id="L_150" type="car6" route="route1_2" depart="363" departLane = "2" departSpeed="11.180000"/>
	<vehicle id="R_151" type="car7" route="route3_2" depart="364" departLane = "1" departSpeed="11.180000"/>
	<vehicle id="L_152" type="car6" route="route2_3" depart="371" departLane = "2" departSpeed="11.180000"/>
	<vehicle id="S_153" type="car6" route="route1_3" depart="372" departLane = "1" departSpeed="11.180000"/>
	<vehicle id="L_154" type="car9" route="route3_4" depart="374" departLane = "2" departSpeed="11.180000"/>
	<vehicle id="R_155" type="car8" route="route4_3" depart="375" departLane = "2" departSpeed="11.180000"/>
	<vehicle id="R_156" type="car9" route="route3_2" depart="377" departLane = "2" departSpeed="11.180000"/>
	<vehicle id="S_157" type="car7" route="route2_4" depart="383" departLane = "2" departSpeed="11.180000"/>
	<vehicle id="S_158" type="car9" route="route1_3" depart="385" departLane = "2" departSpeed="11.180000"/>
	<vehicle id="L_159" type="car9" route="route1_2" depart="387" departLane = "0" departSpeed="11.180000"/>
	<vehicle id="R_160" type="car7" route="route3_2" depart="391" departLane = "0" departSpeed="11.180000"/>
	<vehicle id="S_161" type="car9" route="route4_2" depart="392" departLane = "0" departSpeed="11.180000"/>
	<vehicle id="R_162" type="car9" route="route1_4" depart="393" departLane = "2" departSpeed="11.180000"/>
	<vehicle id="R_163" type="car7" route="route1_4" depart="396" departLane = "2" departSpeed="11.180000"/>
	<vehicle id="R_164" type="car7" route="route2_1" depart="396" departLane = "1" departSpeed="11.180000"/>
	<vehicle id="R_165" type="car8" route="route4_3" depart="397" departLane = "0" departSpeed="11.180000"/>
	<vehicle id="L_166" type="car9" route="route1_2" depart="408" departLane = "2" departSpeed="11.180000"/>
	<vehicle id="S_167" type="car5" route="route3_1" depart="408" departLane = "0" departSpeed="11.180000"/>
	<vehicle id="R_168" type="car9" route="route2_1" depart="409" departLane = "2" departSpeed="11.180000"/>
	<vehicle id="L_169" type="car5" route="route4_1" depart="410" departLane = "2" departSpeed="11.180000"/>
	<vehicle id="S_170" type="car6" route="route2_4" depart="414" departLane = "1" departSpeed="11.180000"/>
	<vehicle id="L_171" type="car5" route="route3_4" depart="417" departLane = "2" departSpeed="11.180000"/>
	<vehicle id="L_172" type="car5" route="route2_3" depart="422" departLane = "2" departSpeed="11.180000"/>
	<vehicle id="L_173" type="car5" route="route3_4" depart="428" departLane = "0" departSpeed="11.180000"/>
	<vehicle id="R_174" type="car7" route="route4_3" depart="430" departLane = "1" departSpeed="11.180000"/>
	<vehicle id="L_175" type="car9" route="route2_3" depart="431" departLane = "1" departSpeed="11.180000"/>
	<vehicle id="S_176" type="car6" route="route3_1" depart="431" departLane = "1" departSpeed="11.180000"/>
	<vehicle id="R_177" type="car9" route="route2_1" depart="433" departLane = "2" departSpeed="11.180000"/>
	<vehicle id="R_178" type="car5" route="route1_4" depart="436" departLane = "1" departSpeed="11.180000"/>
	<vehicle id="L_179" type="car6" route="route3_4" depart="436" departLane = "0" departSpeed="11.180000"/>
	<vehicle id="L_180" type="car6" route="route2_3" depart="439" departLane = "1" departSpeed="11.180000"/>
	<vehicle id="S_181" type="car6" route="route2_4" depart="440" departLane = "0" departSpeed="11.180000"/>
	<vehicle id="S_182" type="car8" route="route2_4" depart="441" departLane = "0" departSpeed="11.180000"/>
	<vehicle id="L_183" type="car6" route="route2_3" depart="442" departLane = "0" departSpeed="11.180000"/>
	<vehicle id="R_184" type="car9" route="route1_4" depart="446" departLane = "1" departSpeed="11.180000"/>
	<vehicle id="S_185" type="car7" route="route1_3" depart="447" departLane = "0" departSpeed="11.180000"/>
	<vehicle id="S_186" type="car9" route="route2_4" depart="448" departLane = "1" departSpeed="11.180000"/>
	<vehicle id="S_187" type="car6" route="route4_2" depart="449" departLane = "1" departSpeed="11.180000"/>
	<vehicle id="R_188" type="car7" route="route4_3" depart="451" departLane = "2" departSpeed="11.180000"/>
	<vehicle id="L_189" type="car6" route="route1_2" depart="463" departLane = "1" departSpeed="11.180000"/>
	<vehicle id="S_190" type="car8" route="route3_1" depart="464" departLane = "2" departSpeed="11.180000"/>
	<vehicle id="L_191" type="car8" route="route2_3" depart="465" departLane = "1" departSpeed="11.180000"/>
	<vehicle id="L_192" type="car8" route="route3_4" depart="467" departLane = "2" departSpeed="11.180000"/>
	<vehicle id="R_193" type="car9" route="route3_2" depart="470" departLane = "2" departSpeed="11.180000"/>
	<vehicle id="R_194" type="car5" route="route4_3" depart="471" departLane = "1" departSpeed="11.180000"/>
	<vehicle id="S_195" type="car6" route="route4_2" depart="472" departLane = "1" departSpeed="11.180000"/>
	<vehicle id="L_196" type="car8" route="route2_3" depart="477" departLane = "2" departSpeed="11.180000"/>
	<vehicle id="L_197" type="car7" route="route2_3" depart="478" departLane = "1" departSpeed="11.180000"/>
	<vehicle id="L_198" type="car6" route="route4_1" depart="480" departLane = "0" departSpeed="11.180000"/>
	<vehicle id="S_199" type="car7" route="route2_4" depart="481" departLane = "0" departSpeed="11.180000"/>
	<vehicle id="L_200" type="car6" route="route3_4" depart="481" departLane = "0" departSpeed="11.180000"/>
	<vehicle id="R_201" type="car9" route="route2_1" depart="485" departLane = "1" departSpeed="11.180000"/>
	<vehicle id="S_202" type="car8" route="route4_2" depart="485" departLane = "2" departSpeed="11.180000"/>
	<vehicle id="L_203" type="car6" route="route4_1" depart="487" departLane = "1" departSpeed="11.180000"/>
	<vehicle id="L_204" type="car7" route="route2_3" depart="490" departLane = "1" departSpeed="11.180000"/>
	<vehicle id="L_205" type="car5" route="route3_4" depart="491" departLane = "1" departSpeed="11.180000"/>
	<vehicle id="R_206" type="car5" route="route3_2" depart="494" departLane = "2" departSpeed="11.180000"/>
	<vehicle id="S_207" type="car8" route="route3_1" depart="497" departLane = "1" departSpeed="11.180000"/>
	<vehicle id="S_208" type="car7" route="route2_4" depart="499" departLane = "0" departSpeed="11.180000"/>
	<vehicle id="R_209" type="car7" route="route3_2" depart="501" departLane = "0" departSpeed="11.180000"/>
	<vehicle id="R_210" type="car7" route="route2_1" depart="503" departLane = "0" departSpeed="11.180000"/>
	<vehicle id="L_211" type="car6" route="route1_2" depart="507" departLane = "1" departSpeed="11.180000"/>
	<vehicle id="S_212" type="car9" route="route3_1" depart="511" departLane = "1" departSpeed="11.180000"/>
	<vehicle id="L_213" type="car8" route="route2_3" depart="512" departLane = "2" departSpeed="11.180000"/>
	<vehicle id="L_214" type="car8" route="route2_3" depart="516" departLane = "0" departSpeed="11.180000"/>
	<vehicle id="R_215" type="car6" route="route2_1" depart="518" departLane = "0" departSpeed="11.180000"/>
	<vehicle id="L_216" type="car8" route="route2_3" depart="520" departLane = "0" departSpeed="11.180000"/>
	<vehicle id="S_217" type="car6" route="route4_2" depart="520" departLane = "0" departSpeed="11.180000"/>
	<vehicle id="S_218" type="car6" route="route4_2" depart="527" departLane = "2" departSpeed="11.180000"/>
	<vehicle id="R_219" type="car6" route="route3_2" depart="529" departLane = "0" departSpeed="11.180000"/>
	<vehicle id="S_220" type="car8" route="route4_2" depart="531" departLane = "1" departSpeed="11.180000"/>
	<vehicle id="R_221" type="car8" route="route3_2" depart="532" departLane = "0" departSpeed="11.180000"/>
	<vehicle id="L_222" type="car7" route="route1_2" depart="537" departLane = "2" departSpeed="11.180000"/>
	<vehicle id="R_223" type="car9" route="route2_1" depart="538" departLane = "0" departSpeed="11.180000"/>
	<vehicle id="L_224" type="car5" route="route4_1" depart="539" departLane = "0" departSpeed="11.180000"/>
	<vehicle id="R_225" type="car6" route="route3_2" depart="547" departLane = "0" departSpeed="11.180000"/>
	<vehicle id="R_226" type="car8" route="route2_1" depart="554" departLane = "1" departSpeed="11.180000"/>
	<vehicle id="L_227" type="car8" route="route1_2" depart="555" departLane = "0" departSpeed="11.180000"/>
	<vehicle id="R_228" type="car7" route="route4_3" depart="556" departLane = "1" departSpeed="11.180000"/>
	<vehicle id="R_229" type="car5" route="route3_2" depart="557" departLane = "1" departSpeed="11.180000"/>
	<vehicle id="L_230" type="car7" route="route3_4" depart="559" departLane = "0" departSpeed="11.180000"/>
	<vehicle id="L_231" type="car9" route="route2_3" depart="560" departLane = "1" departSpeed="11.180000"/>
	<vehicle id="S_232" type="car6" route="route4_2" depart="561" departLane = "0" departSpeed="11.180000"/>
	<vehicle id="L_233" type="car7" route="route4_1" depart="568" departLane = "1" departSpeed="11.180000"/>
	<vehicle id="L_234" type="car6" route="route1_2" depart="569" departLane = "0" departSpeed="11.180000"/>
	<vehicle id="S_235" type="car9" route="route3_1" depart="570" departLane = "0" departSpeed="11.180000"/>
	<vehicle id="S_236" type="car5" route="route4_2" depart="570" departLane = "1" departSpeed="11.180000"/>
	<vehicle id="S_237" type="car9" route="route1_3" depart="573" departLane = "1" departSpeed="11.180000"/>
	<vehicle id="L_238" type="car6" route="route4_1" depart="574" departLane = "2" departSpeed="11.180000"/>
	<vehicle id="S_239" type="car9" route="route2_4" depart="575" departLane = "1" departSpeed="11.180000"/>
	<vehicle id="R_240" type="car6" route="route2_1" depart="577" departLane = "2" departSpeed="11.180000"/>
	<vehicle id="L_241" type="car5" route="route4_1" depart="577" departLane = "0" departSpeed="11.180000"/>
	<vehicle id="S_242" type="car9" route="route4_2" depart="578" departLane = "0" departSpeed="11.180000"/>
	<vehicle id="L_243" type="car8" route="route3_4" depart="579" departLane = "0" departSpeed="11.180000"/>
	<vehicle id="R_244" type="car5" route="route2_1" depart="583" departLane = "1" departSpeed="11.180000"/>
	<vehicle id="S_245" type="car8" route="route2_4" depart="588" departLane = "0" departSpeed="11.180000"/>
	<vehicle id="S_246" type="car5" route="route2_4" depart="592" departLane = "2" departSpeed="11.180000"/>
	<vehicle id="L_247" type="car6" route="route2_3" depart="595" departLane = "0" departSpeed="11.180000"/>
	<vehicle id="L_248" type="car8" route="route4_1" depart="596" departLane = "2" departSpeed="11.180000"/>
	<vehicle id="S_249" type="car6" route="route3_1" depart="597" departLane = "2" departSpeed="11.180000"/>
	<vehicle id="S_250" type="car6" route="route4_2" depart="601" departLane = "1" departSpeed="11.180000"/>
	<vehicle id="R_251" type="car7" route="route1_4" depart="606" departLane = "1" departSpeed="11.180000"/>
	<vehicle id="R_252" type="car5" route="route3_2" depart="608" departLane = "2" departSpeed="11.180000"/>
	<vehicle id="R_253" type="car9" route="route2_1" depart="611" departLane = "2" departSpeed="11.180000"/>
	<vehicle id="R_254" type="car8" route="route3_2" depart="611" departLane = "2" departSpeed="11.180000"/>
	<vehicle id="L_255" type="car5" route="route4_1" depart="611" departLane = "0" departSpeed="11.180000"/>
	<vehicle id="S_256" type="car7" route="route4_2" depart="614" departLane = "2" departSpeed="11.180000"/>
	<vehicle id="S_257" type="car8" route="route4_2" depart="616" departLane = "2" departSpeed="11.180000"/>
	<vehicle id="R_258" type="car9" route="route1_4" depart="617" departLane = "1" departSpeed="11.180000"/>
	<vehicle id="L_259" type="car6" route="route3_4" depart="619" departLane = "1" departSpeed="11.180000"/>
	<vehicle id="L_260" type="car8" route="route4_1" depart="619" departLane = "0" departSpeed="11.180000"/>
	<vehicle id="L_261" type="car7" route="route4_1" depart="624" departLane = "2" departSpeed="11.180000"/>
	<vehicle id="L_262" type="car7" route="route4_1" depart="625" departLane = "1" departSpeed="11.180000"/>
	<vehicle id="R_263" type="car7" route="route1_4" depart="626" departLane = "1" departSpeed="11.180000"/>
	<vehicle id="R_264" type="car5" route="route3_2" depart="626" departLane = "1" departSpeed="11.180000"/>
	<vehicle id="R_265" type="car6" route="route4_3" depart="632" departLane = "0" departSpeed="11.180000"/>
	<vehicle id="L_266" type="car7" route="route1_2" depart="635" departLane = "1" departSpeed="11.180000"/>
	<vehicle id="S_267" type="car6" route="route3_1" depart="635" departLane = "0" departSpeed="11.180000"/>
	<vehicle id="L_268" type="car8" route="route4_1" depart="640" departLane = "1" departSpeed="11.180000"/>
	<vehicle id="S_269" type="car8" route="route2_4" depart="641" departLane = "0" departSpeed="11.180000"/>
	<vehicle id="R_270" type="car7" route="route1_4" depart="642" departLane = "0" departSpeed="11.180000"/>
	<vehicle id="R_271" type="car8" route="route4_3" depart="647" departLane = "1" departSpeed="11.180000"/>