<routes>

	<vType id="car5" accel="100.0" decel="100.0" sigma="0.0" length="5" minGap="3.000000" maxSpeed="11.180000" tau="0.100000" carFollowModel="CACC" color="255,255,255"/>
	<vType id="car6" accel="100.0" decel="100.0" sigma="0.0" length="6" minGap="3.000000" maxSpeed="11.180000" tau="0.100000" carFollowModel="CACC" color="255,255,255"/>
	<vType id="car7" accel="100.0" decel="100.0" sigma="0.0" length="7" minGap="3.000000" maxSpeed="11.180000" tau="0.100000" carFollowModel="CACC" color="255,255,255"/>
	<vType id="car8" accel="100.0" decel="100.0" sigma="0.0" length="8" minGap="3.000000" maxSpeed="11.180000" tau="0.100000" carFollowModel="CACC" color="255,255,255"/>
	<vType id="car9" accel="100.0" decel="100.0" sigma="0.0" length="9" minGap="3.000000" maxSpeed="11.180000" tau="0.100000" carFollowModel="CACC" color="255,255,255"/>

	<route id="route0_1_2" edges=" 001_001_1"/>
	<route id="route0_1_3" edges=" 001_001_1"/>
	<route id="route0_1_4" edges=" 001_001_1"/>
	<route id="route0_2_1" edges=" 001_001_2"/>
	<route id="route0_2_3" edges=" 001_001_2"/>
	<route id="route0_2_4" edges=" 001_001_2"/>
	<route id="route0_3_1" edges=" 001_001_3"/>
	<route id="route0_3_2" edges=" 001_001_3"/>
	<route id="route0_3_4" edges=" 001_001_3"/>
	<route id="route0_4_1" edges=" 001_001_4"/>
	<route id="route0_4_2" edges=" 001_001_4"/>
	<route id="route0_4_3" edges=" 001_001_4"/>
	<route id="route1_1_2" edges=" 002_001_1"/>
	<route id="route1_1_3" edges=" 002_001_1"/>
	<route id="route1_1_4" edges=" 002_001_1"/>
	<route id="route1_2_1" edges=" 002_001_2"/>
	<route id="route1_2_3" edges=" 002_001_2"/>
	<route id="route1_2_4" edges=" 002_001_2"/>
	<route id="route1_3_1" edges=" 002_001_3"/>
	<route id="route1_3_2" edges=" 002_001_3"/>
	<route id="route1_3_4" edges=" 002_001_3"/>
	<route id="route1_4_1" edges=" 002_001_4"/>
	<route id="route1_4_2" edges=" 002_001_4"/>
	<route id="route1_4_3" edges=" 002_001_4"/>

	<vehicle id="SR_0" type="car5" route="route0_1_3" depart="0" departLane = "1" departSpeed="11.180000"/>
	<vehicle id="LL_1" type="car8" route="route0_2_3" depart="0" departLane = "2" departSpeed="11.180000"/>
	<vehicle id="LX_2" type="car8" route="route0_4_1" depart="0" departLane = "2" departSpeed="11.180000"/>
	<vehicle id="LX_3" type="car6" route="route1_2_3" depart="0" departLane = "2" departSpeed="11.180000"/>
	<vehicle id="LX_4" type="car5" route="route1_3_4" depart="0" departLane = "2" departSpeed="11.180000"/>
	<vehicle id="SX_5" type="car8" route="route1_4_2" depart="0" departLane = "1" departSpeed="11.180000"/>
	<vehicle id="SS_6" type="car5" route="route0_1_3" depart="1" departLane = "1" departSpeed="11.180000"/>
	<vehicle id="SX_7" type="car7" route="route0_2_4" depart="1" departLane = "1" departSpeed="11.180000"/>
	<vehicle id="RL_8" type="car6" route="route0_4_3" depart="1" departLane = "0" departSpeed="11.180000"/>
	<vehicle id="RL_9" type="car5" route="route1_2_1" depart="1" departLane = "0" departSpeed="11.180000"/>
	<vehicle id="RX_10" type="car5" route="route1_3_2" depart="1" departLane = "0" departSpeed="11.180000"/>
	<vehicle id="SX_11" type="car9" route="route1_4_2" depart="1" departLane = "1" departSpeed="11.180000"/>
	<vehicle id="SL_12" type="car8" route="route0_1_3" depart="2" departLane = "1" departSpeed="11.180000"/>
	<vehicle id="LR_13" type="car8" route="route0_2_3" depart="2" departLane = "2" departSpeed="11.180000"/>
	<vehicle id="RL_14" type="car9" route="route0_4_3" depart="2" departLane = "0" departSpeed="11.180000"/>
	<vehicle id="RR_15" type="car8" route="route1_2_1" depart="2" departLane = "0" departSpeed="11.180000"/>
	<vehicle id="RX_16" type="car9" route="route1_3_2" depart="2" departLane = "0" departSpeed="11.180000"/>
	<vehicle id="LL_17" type="car6" route="route1_4_1" depart="2" departLane = "2" departSpeed="11.180000"/>
	<vehicle id="LX_18" type="car8" route="route0_1_2" depart="3" departLane = "2" departSpeed="11.180000"/>
	<vehicle id="RX_19" type="car5" route="route0_2_1" depart="3" departLane = "0" departSpeed="11.180000"/>
	<vehicle id="LX_20" type="car9" route="route0_4_1" depart="3" departLane = "2" departSpeed="11.180000"/>
	<vehicle id="SX_21" type="car5" route="route1_2_4" depart="3" departLane = "1" departSpeed="11.180000"/>
	<vehicle id="RX_22" type="car7" route="route1_3_2" depart="3" departLane = "0" departSpeed="11.180000"/>
	<vehicle id="SX_23" type="car7" route="route1_4_2" depart="3" departLane = "1" departSpeed="11.180000"/>
	<vehicle id="RX_24" type="car9" route="route0_1_4" depart="4" departLane = "0" departSpeed="11.180000"/>
	<vehicle id="LR_25" type="car8" route="route0_2_3" depart="4" departLane = "2" departSpeed="11.180000"/>
	<vehicle id="RL_26" type="car6" route="route0_4_3" depart="4" departLane = "0" departSpeed="11.180000"/>
	<vehicle id="RR_27" type="car9" route="route1_2_1" depart="4" departLane = "0" departSpeed="11.180000"/>
	<vehicle id="RX_28" type="car8" route="route1_3_2" depart="4" departLane = "0" departSpeed="11.180000"/>
	<vehicle id="LR_29" type="car9" route="route1_4_1" depart="4" departLane = "2" departSpeed="11.180000"/>
	<vehicle id="LX_30" type="car5" route="route0_1_2" depart="5" departLane = "2" departSpeed="11.180000"/>
	<vehicle id="SX_31" type="car8" route="route0_2_4" depart="5" departLane = "1" departSpeed="11.180000"/>
	<vehicle id="RL_32" type="car6" route="route0_4_3" depart="5" departLane = "0" departSpeed="11.180000"/>
	<vehicle id="LX_33" type="car7" route="route1_2_3" depart="5" departLane = "2" departSpeed="11.180000"/>
	<vehicle id="LX_34" type="car9" route="route1_3_4" depart="5" departLane = "2" departSpeed="11.180000"/>
	<vehicle id="LR_35" type="car6" route="route1_4_1" depart="5" departLane = "2" departSpeed="11.180000"/>
	<vehicle id="LX_36" type="car8" route="route0_1_2" depart="6" departLane = "2" departSpeed="11.180000"/>
	<vehicle id="LS_37" type="car5" route="route0_2_3" depart="6" departLane = "2" departSpeed="11.180000"/>
	<vehicle id="LX_38" type="car7" route="route0_4_1" depart="6" departLane = "2" departSpeed="11.180000"/>
	<vehicle id="SX_39" type="car9" route="route1_2_4" depart="6" departLane = "1" departSpeed="11.180000"/>
	<vehicle id="LX_40" type="car8" route="route1_3_4" depart="6" departLane = "2" departSpeed="11.180000"/>
	<vehicle id="SX_41" type="car6" route="route1_4_2" depart="6" departLane = "1" departSpeed="11.180000"/>
	<vehicle id="RX_42" type="car5" route="route0_1_4" depart="7" departLane = "0" departSpeed="11.180000"/>
	<vehicle id="LS_43" type="car9" route="route0_2_3" depart="7" departLane = "2" departSpeed="11.180000"/>
	<vehicle id="RS_44" type="car9" route="route0_4_3" depart="7" departLane = "0" departSpeed="11.180000"/>
	<vehicle id="LX_45" type="car9" route="route1_2_3" depart="7" departLane = "2" departSpeed="11.180000"/>
	<vehicle id="SS_46" type="car9" route="route1_3_1" depart="7" departLane = "1" departSpeed="11.180000"/>
	<vehicle id="SX_47" type="car7" route="route1_4_2" depart="7" departLane = "1" departSpeed="11.180000"/>
	<vehicle id="RX_48" type="car9" route="route0_1_4" depart="8" departLane = "0" departSpeed="11.180000"/>
	<vehicle id="SX_49" type="car5" route="route0_2_4" depart="8" departLane = "1" departSpeed="11.180000"/>
	<vehicle id="RL_50" type="car9" route="route0_4_3" depart="8" departLane = "0" departSpeed="11.180000"/>
	<vehicle id="LX_51" type="car9" route="route1_2_3" depart="8" departLane = "2" departSpeed="11.180000"/>
	<vehicle id="RX_52" type="car6" route="route1_3_2" depart="8" departLane = "0" departSpeed="11.180000"/>
	<vehicle id="SX_53" type="car5" route="route1_4_2" depart="8" departLane = "1" departSpeed="11.180000"/>
	<vehicle id="LX_54" type="car7" route="route0_1_2" depart="9" departLane = "2" departSpeed="11.180000"/>
	<vehicle id="RX_55" type="car6" route="route0_2_1" depart="9" departLane = "0" departSpeed="11.180000"/>
	<vehicle id="SX_56" type="car8" route="route0_4_2" depart="9" departLane = "1" departSpeed="11.180000"/>
	<vehicle id="RR_57" type="car7" route="route1_2_1" depart="9" departLane = "0" departSpeed="11.180000"/>
	<vehicle id="RX_58" type="car5" route="route1_3_2" depart="9" departLane = "0" departSpeed="11.180000"/>
	<vehicle id="SX_59" type="car9" route="route1_4_2" depart="9" departLane = "1" departSpeed="11.180000"/>
	<vehicle id="RX_60" type="car7" route="route0_1_4" depart="10" departLane = "0" departSpeed="11.180000"/>
	<vehicle id="SX_61" type="car5" route="route0_2_4" depart="10" departLane = "1" departSpeed="11.180000"/>
	<vehicle id="LX_62" type="car6" route="route0_4_1" depart="10" departLane = "2" departSpeed="11.180000"/>
	<vehicle id="RS_63" type="car6" route="route1_2_1" depart="10" departLane = "0" departSpeed="11.180000"/>
	<vehicle id="RX_64" type="car9" route="route1_3_2" depart="10" departLane = "0" departSpeed="11.180000"/>
	<vehicle id="SX_65" type="car7" route="route1_4_2" depart="10" departLane = "1" departSpeed="11.180000"/>
	<vehicle id="SL_66" type="car5" route="route0_1_3" depart="11" departLane = "1" departSpeed="11.180000"/>
	<vehicle id="RX_67" type="car5" route="route0_2_1" depart="11" departLane = "0" departSpeed="11.180000"/>
	<vehicle id="SX_68" type="car7" route="route0_4_2" depart="11" departLane = "1" departSpeed="11.180000"/>
	<vehicle id="SX_69" type="car5" route="route1_2_4" depart="11" departLane = "1" departSpeed="11.180000"/>
	<vehicle id="SL_70" type="car6" route="route1_3_1" depart="11" departLane = "1" departSpeed="11.180000"/>
	<vehicle id="RX_71" type="car5" route="route1_4_3" depart="11" departLane = "0" departSpeed="11.180000"/>
	<vehicle id="SL_72" type="car7" route="route0_1_3" depart="12" departLane = "1" departSpeed="11.180000"/>
	<vehicle id="SX_73" type="car6" route="route0_2_4" depart="12" departLane = "1" departSpeed="11.180000"/>
	<vehicle id="LX_74" type="car7" route="route0_4_1" depart="12" departLane = "2" departSpeed="11.180000"/>
	<vehicle id="SX_75" type="car7" route="route1_2_4" depart="12" departLane = "1" departSpeed="11.180000"/>
	<vehicle id="RX_76" type="car5" route="route1_3_2" depart="12" departLane = "0" departSpeed="11.180000"/>
	<vehicle id="SX_77" type="car8" route="route1_4_2" depart="12" departLane = "1" departSpeed="11.180000"/>
	<vehicle id="RX_78" type="car6" route="route0_1_4" depart="13" departLane = "0" departSpeed="11.180000"/>
	<vehicle id="SX_79" type="car7" route="route0_2_4" depart="13" departLane = "1" departSpeed="11.180000"/>
	<vehicle id="LX_80" type="car9" route="route0_4_1" depart="13" departLane = "2" departSpeed="11.180000"/>
	<vehicle id="RR_81" type="car9" route="route1_2_1" depart="13" departLane = "0" departSpeed="11.180000"/>
	<vehicle id="RX_82" type="car5" route="route1_3_2" depart="13" departLane = "0" departSpeed="11.180000"/>
	<vehicle id="LL_83" type="car8" route="route1_4_1" depart="13" departLane = "2" departSpeed="11.180000"/>
	<vehicle id="RX_84" type="car6" route="route0_1_4" depart="14" departLane = "0" departSpeed="11.180000"/>
	<vehicle id="RX_85" type="car9" route="route0_2_1" depart="14" departLane = "0" departSpeed="11.180000"/>
	<vehicle id="LX_86" type="car9" route="route0_4_1" depart="14" departLane = "2" departSpeed="11.180000"/>
	<vehicle id="RR_87" type="car9" route="route1_2_1" depart="14" departLane = "0" departSpeed="11.180000"/>
	<vehicle id="RX_88" type="car9" route="route1_3_2" depart="14" departLane = "0" departSpeed="11.180000"/>
	<vehicle id="RX_89" type="car8" route="route1_4_3" depart="14" departLane = "0" departSpeed="11.180000"/>
	<vehicle id="LX_90" type="car7" route="route0_1_2" depart="15" departLane = "2" departSpeed="11.180000"/>
	<vehicle id="LL_91" type="car8" route="route0_2_3" depart="15" departLane = "2" departSpeed="11.180000"/>
	<vehicle id="LX_92" type="car7" route="route0_4_1" depart="15" departLane = "2" departSpeed="11.180000"/>
	<vehicle id="LX_93" type="car6" route="route1_2_3" depart="15" departLane = "2" departSpeed="11.180000"/>
	<vehicle id="RX_94" type="car7" route="route1_3_2" depart="15" departLane = "0" departSpeed="11.180000"/>
	<vehicle id="SX_95" type="car5" route="route1_4_2" depart="15" departLane = "1" departSpeed="11.180000"/>
	<vehicle id="SR_96" type="car7" route="route0_1_3" depart="16" departLane = "1" departSpeed="11.180000"/>
	<vehicle id="LL_97" type="car8" route="route0_2_3" depart="16" departLane = "2" departSpeed="11.180000"/>
	<vehicle id="SX_98" type="car6" route="route0_4_2" depart="16" departLane = "1" departSpeed="11.180000"/>
	<vehicle id="RS_99" type="car5" route="route1_2_1" depart="16" departLane = "0" departSpeed="11.180000"/>
	<vehicle id="LX_100" type="car6" route="route1_3_4" depart="16" departLane = "2" departSpeed="11.180000"/>
	<vehicle id="RX_101" type="car9" route="route1_4_3" depart="16" departLane = "0" departSpeed="11.180000"/>
	<vehicle id="LX_102" type="car9" route="route0_1_2" depart="17" departLane = "2" departSpeed="11.180000"/>
	<vehicle id="RX_103" type="car8" route="route0_2_1" depart="17" departLane = "0" departSpeed="11.180000"/>
	<vehicle id="SX_104" type="car5" route="route0_4_2" depart="17" departLane = "1" departSpeed="11.180000"/>
	<vehicle id="RR_105" type="car8" route="route1_2_1" depart="17" departLane = "0" departSpeed="11.180000"/>
	<vehicle id="SL_106" type="car8" route="route1_3_1" depart="17" departLane = "1" departSpeed="11.180000"/>
	<vehicle id="LL_107" type="car8" route="route1_4_1" depart="17" departLane = "2" departSpeed="11.180000"/>
	<vehicle id="LX_108" type="car8" route="route0_1_2" depart="18" departLane = "2" departSpeed="11.180000"/>
	<vehicle id="LL_109" type="car9" route="route0_2_3" depart="18" departLane = "2" departSpeed="11.180000"/>
	<vehicle id="RS_110" type="car7" route="route0_4_3" depart="18" departLane = "0" departSpeed="11.180000"/>
	<vehicle id="LX_111" type="car6" route="route1_2_3" depart="18" departLane = "2" departSpeed="11.180000"/>
	<vehicle id="LX_112" type="car9" route="route1_3_4" depart="18" departLane = "2" departSpeed="11.180000"/>
	<vehicle id="RX_113" type="car7" route="route1_4_3" depart="18" departLane = "0" departSpeed="11.180000"/>
	<vehicle id="SL_114" type="car7" route="route0_1_3" depart="19" departLane = "1" departSpeed="11.180000"/>
	<vehicle id="LR_115" type="car8" route="route0_2_3" depart="19" departLane = "2" departSpeed="11.180000"/>
	<vehicle id="LX_116" type="car7" route="route0_4_1" depart="19" departLane = "2" departSpeed="11.180000"/>
	<vehicle id="SX_117" type="car9" route="route1_2_4" depart="19" departLane = "1" departSpeed="11.180000"/>
	<vehicle id="RX_118" type="car9" route="route1_3_2" depart="19" departLane = "0" departSpeed="11.180000"/>
	<vehicle id="RX_119" type="car5" route="route1_4_3" depart="19" departLane = "0" departSpeed="11.180000"/>
	<vehicle id="LX_120" type="car6" route="route0_1_2" depart="20" departLane = "2" departSpeed="11.180000"/>
	<vehicle id="SX_121" type="car9" route="route0_2_4" depart="20" departLane = "1" departSpeed="11.180000"/>
	<vehicle id="SX_122" type="car7" route="route0_4_2" depart="20" departLane = "1" departSpeed="11.180000"/>
	<vehicle id="RL_123" type="car7" route="route1_2_1" depart="20" departLane = "0" departSpeed="11.180000"/>
	<vehicle id="LX_124" type="car7" route="route1_3_4" depart="20" departLane = "2" departSpeed="11.180000"/>
	<vehicle id="LS_125" type="car6" route="route1_4_1" depart="20" departLane = "2" departSpeed="11.180000"/>
	<vehicle id="SS_126" type="car9" route="route0_1_3" depart="21" departLane = "1" departSpeed="11.180000"/>
	<vehicle id="LR_127" type="car8" route="route0_2_3" depart="21" departLane = "2" departSpeed="11.180000"/>
	<vehicle id="SX_128" type="car9" route="route0_4_2" depart="21" departLane = "1" departSpeed="11.180000"/>
	<vehicle id="SX_129" type="car7" route="route1_2_4" depart="21" departLane = "1" departSpeed="11.180000"/>
	<vehicle id="SR_130" type="car5" route="route1_3_1" depart="21" departLane = "1" departSpeed="11.180000"/>
	<vehicle id="RX_131" type="car6" route="route1_4_3" depart="21" departLane = "0" departSpeed="11.180000"/>
	<vehicle id="LX_132" type="car7" route="route0_1_2" depart="22" departLane = "2" departSpeed="11.180000"/>
	<vehicle id="LS_133" type="car9" route="route0_2_3" depart="22" departLane = "2" departSpeed="11.180000"/>
	<vehicle id="SX_134" type="car8" route="route0_4_2" depart="22" departLane = "1" departSpeed="11.180000"/>
	<vehicle id="LX_135" type="car9" route="route1_2_3" depart="22" departLane = "2" departSpeed="11.180000"/>
	<vehicle id="RX_136" type="car5" route="route1_3_2" depart="22" departLane = "0" departSpeed="11.180000"/>
	<vehicle id="LL_137" type="car7" route="route1_4_1" depart="22" departLane = "2" departSpeed="11.180000"/>
	<vehicle id="RX_138" type="car9" route="route0_1_4" depart="23" departLane = "0" departSpeed="11.180000"/>
	<vehicle id="LS_139" type="car5" route="route0_2_3" depart="23" departLane = "2" departSpeed="11.180000"/>
	<vehicle id="SX_140" type="car7" route="route0_4_2" depart="23" departLane = "1" departSpeed="11.180000"/>
	<vehicle id="RL_141" type="car5" route="route1_2_1" depart="23" departLane = "0" departSpeed="11.180000"/>
	<vehicle id="LX_142" type="car5" route="route1_3_4" depart="23" departLane = "2" departSpeed="11.180000"/>
	<vehicle id="RX_143" type="car5" route="route1_4_3" depart="23" departLane = "0" departSpeed="11.180000"/>
	<vehicle id="RX_144" type="car5" route="route0_1_4" depart="24" departLane = "0" departSpeed="11.180000"/>
	<vehicle id="RX_145" type="car5" route="route0_2_1" depart="24" departLane = "0" departSpeed="11.180000"/>
	<vehicle id="RL_146" type="car9" route="route0_4_3" depart="24" departLane = "0" departSpeed="11.180000"/>
	<vehicle id="LX_147" type="car5" route="route1_2_3" depart="24" departLane = "2" departSpeed="11.180000"/>
	<vehicle id="SR_148" type="car6" route="route1_3_1" depart="24" departLane = "1" departSpeed="11.180000"/>
	<vehicle id="RX_149" type="car5" route="route1_4_3" depart="24" departLane = "0" departSpeed="11.180000"/>
	<vehicle id="SR_150" type="car8" route="route0_1_3" depart="25" departLane = "1" departSpeed="11.180000"/>
	<vehicle id="SX_151" type="car9" route="route0_2_4" depart="25" departLane = "1" departSpeed="11.180000"/>
	<vehicle id="SX_152" type="car7" route="route0_4_2" depart="25" departLane = "1" departSpeed="11.180000"/>
	<vehicle id="SX_153" type="car8" route="route1_2_4" depart="25" departLane = "1" departSpeed="11.180000"/>
	<vehicle id="SS_154" type="car6" route="route1_3_1" depart="25" departLane = "1" departSpeed="11.180000"/>
	<vehicle id="RX_155" type="car5" route="route1_4_3" depart="25" departLane = "0" departSpeed="11.180000"/>
	<vehicle id="RX_156" type="car7" route="route0_1_4" depart="26" departLane = "0" departSpeed="11.180000"/>
	<vehicle id="SX_157" type="car7" route="route0_2_4" depart="26" departLane = "1" departSpeed="11.180000"/>
	<vehicle id="RL_158" type="car7" route="route0_4_3" depart="26" departLane = "0" departSpeed="11.180000"/>
	<vehicle id="LX_159" type="car5" route="route1_2_3" depart="26" departLane = "2" departSpeed="11.180000"/>
	<vehicle id="LX_160" type="car9" route="route1_3_4" depart="26" departLane = "2" departSpeed="11.180000"/>
	<vehicle id="SX_161" type="car5" route="route1_4_2" depart="26" departLane = "1" departSpeed="11.180000"/>
	<vehicle id="LX_162" type="car9" route="route0_1_2" depart="27" departLane = "2" departSpeed="11.180000"/>
	<vehicle id="RX_163" type="car9" route="route0_2_1" depart="27" departLane = "0" departSpeed="11.180000"/>
	<vehicle id="RL_164" type="car8" route="route0_4_3" depart="27" departLane = "0" departSpeed="11.180000"/>
	<vehicle id="LX_165" type="car7" route="route1_2_3" depart="27" departLane = "2" departSpeed="11.180000"/>
	<vehicle id="LX_166" type="car6" route="route1_3_4" depart="27" departLane = "2" departSpeed="11.180000"/>
	<vehicle id="LR_167" type="car6" route="route1_4_1" depart="27" departLane = "2" departSpeed="11.180000"/>
	<vehicle id="SR_168" type="car7" route="route0_1_3" depart="28" departLane = "1" departSpeed="11.180000"/>
	<vehicle id="SX_169" type="car8" route="route0_2_4" depart="28" departLane = "1" departSpeed="11.180000"/>
	<vehicle id="RR_170" type="car9" route="route0_4_3" depart="28" departLane = "0" departSpeed="11.180000"/>
	<vehicle id="RS_171" type="car6" route="route1_2_1" depart="28" departLane = "0" departSpeed="11.180000"/>
	<vehicle id="SR_172" type="car7" route="route1_3_1" depart="28" departLane = "1" departSpeed="11.180000"/>
	<vehicle id="LS_173" type="car6" route="route1_4_1" depart="28" departLane = "2" departSpeed="11.180000"/>
	<vehicle id="SL_174" type="car9" route="route0_1_3" depart="29" departLane = "1" departSpeed="11.180000"/>
	<vehicle id="SX_175" type="car7" route="route0_2_4" depart="29" departLane = "1" departSpeed="11.180000"/>
	<vehicle id="SX_176" type="car5" route="route0_4_2" depart="29" departLane = "1" departSpeed="11.180000"/>
	<vehicle id="RL_177" type="car9" route="route1_2_1" depart="29" departLane = "0" departSpeed="11.180000"/>
	<vehicle id="RX_178" type="car5" route="route1_3_2" depart="29" departLane = "0" departSpeed="11.180000"/>
	<vehicle id="SX_179" type="car5" route="route1_4_2" depart="29" departLane = "1" departSpeed="11.180000"/>
	<vehicle id="LX_180" type="car8" route="route0_1_2" depart="30" departLane = "2" departSpeed="11.180000"/>
	<vehicle id="RX_181" type="car9" route="route0_2_1" depart="30" departLane = "0" departSpeed="11.180000"/>
	<vehicle id="SX_182" type="car5" route="route0_4_2" depart="30" departLane = "1" departSpeed="11.180000"/>
	<vehicle id="LX_183" type="car5" route="route1_2_3" depart="30" departLane = "2" departSpeed="11.180000"/>
	<vehicle id="SR_184" type="car7" route="route1_3_1" depart="30" departLane = "1" departSpeed="11.180000"/>
	<vehicle id="RX_185" type="car6" route="route1_4_3" depart="30" departLane = "0" departSpeed="11.180000"/>
	<vehicle id="LX_186" type="car7" route="route0_1_2" depart="31" departLane = "2" departSpeed="11.180000"/>
	<vehicle id="RX_187" type="car6" route="route0_2_1" depart="31" departLane = "0" departSpeed="11.180000"/>
	<vehicle id="SX_188" type="car6" route="route0_4_2" depart="31" departLane = "1" departSpeed="11.180000"/>
	<vehicle id="RS_189" type="car7" route="route1_2_1" depart="31" departLane = "0" departSpeed="11.180000"/>
	<vehicle id="RX_190" type="car9" route="route1_3_2" depart="31" departLane = "0" departSpeed="11.180000"/>
	<vehicle id="SX_191" type="car9" route="route1_4_2" depart="31" departLane = "1" departSpeed="11.180000"/>
	<vehicle id="SL_192" type="car6" route="route0_1_3" depart="32" departLane = "1" departSpeed="11.180000"/>
	<vehicle id="SX_193" type="car5" route="route0_2_4" depart="32" departLane = "1" departSpeed="11.180000"/>
	<vehicle id="RR_194" type="car9" route="route0_4_3" depart="32" departLane = "0" departSpeed="11.180000"/>
	<vehicle id="RR_195" type="car9" route="route1_2_1" depart="32" departLane = "0" departSpeed="11.180000"/>
	<vehicle id="RX_196" type="car6" route="route1_3_2" depart="32" departLane = "0" departSpeed="11.180000"/>
	<vehicle id="LR_197" type="car8" route="route1_4_1" depart="32" departLane = "2" departSpeed="11.180000"/>
	<vehicle id="SS_198" type="car5" route="route0_1_3" depart="33" departLane = "1" departSpeed="11.180000"/>
	<vehicle id="SX_199" type="car6" route="route0_2_4" depart="33" departLane = "1" departSpeed="11.180000"/>
	<vehicle id="SX_200" type="car5" route="route0_4_2" depart="33" departLane = "1" departSpeed="11.180000"/>
	<vehicle id="LX_201" type="car8" route="route1_2_3" depart="33" departLane = "2" departSpeed="11.180000"/>
	<vehicle id="SS_202" type="car9" route="route1_3_1" depart="33" departLane = "1" departSpeed="11.180000"/>
	<vehicle id="RX_203" type="car8" route="route1_4_3" depart="33" departLane = "0" departSpeed="11.180000"/>
	<vehicle id="RX_204" type="car8" route="route0_1_4" depart="34" departLane = "0" departSpeed="11.180000"/>
	<vehicle id="LS_205" type="car7" route="route0_2_3" depart="34" departLane = "2" departSpeed="11.180000"/>
	<vehicle id="SX_206" type="car8" route="route0_4_2" depart="34" departLane = "1" departSpeed="11.180000"/>
	<vehicle id="RR_207" type="car8" route="route1_2_1" depart="34" departLane = "0" departSpeed="11.180000"/>
	<vehicle id="RX_208" type="car5" route="route1_3_2" depart="34" departLane = "0" departSpeed="11.180000"/>
	<vehicle id="SX_209" type="car7" route="route1_4_2" depart="34" departLane = "1" departSpeed="11.180000"/>
	<vehicle id="LX_210" type="car9" route="route0_1_2" depart="35" departLane = "2" departSpeed="11.180000"/>
	<vehicle id="LR_211" type="car7" route="route0_2_3" depart="35" departLane = "2" departSpeed="11.180000"/>
	<vehicle id="SX_212" type="car7" route="route0_4_2" depart="35" departLane = "1" departSpeed="11.180000"/>
	<vehicle id="RS_213" type="car8" route="route1_2_1" depart="35" departLane = "0" departSpeed="11.180000"/>
	<vehicle id="RX_214" type="car5" route="route1_3_2" depart="35" departLane = "0" departSpeed="11.180000"/>
	<vehicle id="SX_215" type="car5" route="route1_4_2" depart="35" departLane = "1" departSpeed="11.180000"/>
	<vehicle id="RX_216" type="car7" route="route0_1_4" depart="36" departLane = "0" departSpeed="11.180000"/>
	<vehicle id="SX_217" type="car8" route="route0_2_4" depart="36" departLane = "1" departSpeed="11.180000"/>
	<vehicle id="SX_218" type="car6" route="route0_4_2" depart="36" departLane = "1" departSpeed="11.180000"/>
	<vehicle id="SX_219" type="car8" route="route1_2_4" depart="36" departLane = "1" departSpeed="11.180000"/>
	<vehicle id="LX_220" type="car6" route="route1_3_4" depart="36" departLane = "2" departSpeed="11.180000"/>
	<vehicle id="SX_221" type="car7" route="route1_4_2" depart="36" departLane = "1" departSpeed="11.180000"/>
	<vehicle id="LX_222" type="car7" route="route0_1_2" depart="37" departLane = "2" departSpeed="11.180000"/>
	<vehicle id="RX_223" type="car6" route="route0_2_1" depart="37" departLane = "0" departSpeed="11.180000"/>
	<vehicle id="LX_224" type="car5" route="route0_4_1" depart="37" departLane = "2" departSpeed="11.180000"/>
	<vehicle id="RR_225" type="car7" route="route1_2_1" depart="37" departLane = "0" departSpeed="11.180000"/>
	<vehicle id="RX_226" type="car6" route="route1_3_2" depart="37" departLane = "0" departSpeed="11.180000"/>
	<vehicle id="SX_227" type="car7" route="route1_4_2" depart="37" departLane = "1" departSpeed="11.180000"/>
	<vehicle id="LX_228" type="car7" route="route0_1_2" depart="38" departLane = "2" departSpeed="11.180000"/>
	<vehicle id="SX_229" type="car8" route="route0_2_4" depart="38" departLane = "1" departSpeed="11.180000"/>
	<vehicle id="SX_230" type="car5" route="route0_4_2" depart="38" departLane = "1" departSpeed="11.180000"/>
	<vehicle id="LX_231" type="car9" route="route1_2_3" depart="38" departLane = "2" departSpeed="11.180000"/>
	<vehicle id="SL_232" type="car6" route="route1_3_1" depart="38" departLane = "1" departSpeed="11.180000"/>
	<vehicle id="RX_233" type="car8" route="route1_4_3" depart="38" departLane = "0" departSpeed="11.180000"/>
	<vehicle id="RX_234" type="car9" route="route0_1_4" depart="39" departLane = "0" departSpeed="11.180000"/>
	<vehicle id="LL_235" type="car5" route="route0_2_3" depart="39" departLane = "2" departSpeed="11.180000"/>
	<vehicle id="LX_236" type="car8" route="route0_4_1" depart="39" departLane = "2" departSpeed="11.180000"/>
	<vehicle id="SX_237" type="car7" route="route1_2_4" depart="39" departLane = "1" departSpeed="11.180000"/>
	<vehicle id="RX_238" type="car6" route="route1_3_2" depart="39" departLane = "0" departSpeed="11.180000"/>
	<vehicle id="LL_239" type="car5" route="route1_4_1" depart="39" departLane = "2" departSpeed="11.180000"/>
	<vehicle id="RX_240" type="car5" route="route0_1_4" depart="40" departLane = "0" departSpeed="11.180000"/>
	<vehicle id="SX_241" type="car5" route="route0_2_4" depart="40" departLane = "1" departSpeed="11.180000"/>
	<vehicle id="SX_242" type="car5" route="route0_4_2" depart="40" departLane = "1" departSpeed="11.180000"/>
	<vehicle id="LX_243" type="car6" route="route1_2_3" depart="40" departLane = "2" departSpeed="11.180000"/>
	<vehicle id="LX_244" type="car9" route="route1_3_4" depart="40" departLane = "2" departSpeed="11.180000"/>
	<vehicle id="SX_245" type="car5" route="route1_4_2" depart="40" departLane = "1" departSpeed="11.180000"/>
	<vehicle id="SL_246" type="car6" route="route0_1_3" depart="41" departLane = "1" departSpeed="11.180000"/>
	<vehicle id="SX_247" type="car8" route="route0_2_4" depart="41" departLane = "1" departSpeed="11.180000"/>
	<vehicle id="SX_248" type="car8" route="route0_4_2" depart="41" departLane = "1" departSpeed="11.180000"/>
	<vehicle id="SX_249" type="car7" route="route1_2_4" depart="41" departLane = "1" departSpeed="11.180000"/>
	<vehicle id="LX_250" type="car9" route="route1_3_4" depart="41" departLane = "2" departSpeed="11.180000"/>
	<vehicle id="RX_251" type="car6" route="route1_4_3" depart="41" departLane = "0" departSpeed="11.180000"/>
	<vehicle id="LX_252" type="car9" route="route0_1_2" depart="42" departLane = "2" departSpeed="11.180000"/>
	<vehicle id="SX_253" type="car5" route="route0_2_4" depart="42" departLane = "1" departSpeed="11.180000"/>
	<vehicle id="RL_254" type="car7" route="route0_4_3" depart="42" departLane = "0" departSpeed="11.180000"/>
	<vehicle id="LX_255" type="car9" route="route1_2_3" depart="42" departLane = "2" departSpeed="11.180000"/>
	<vehicle id="RX_256" type="car6" route="route1_3_2" depart="42" departLane = "0" departSpeed="11.180000"/>
	<vehicle id="RX_257" type="car9" route="route1_4_3" depart="42" departLane = "0" departSpeed="11.180000"/>
	<vehicle id="SR_258" type="car9" route="route0_1_3" depart="43" departLane = "1" departSpeed="11.180000"/>
	<vehicle id="RX_259" type="car7" route="route0_2_1" depart="43" departLane = "0" departSpeed="11.180000"/>
	<vehicle id="RR_260" type="car7" route="route0_4_3" depart="43" departLane = "0" departSpeed="11.180000"/>