<routes>

	<vType id="car5" accel="100.0" decel="100.0" sigma="0.0" length="5" minGap="3.000000" maxSpeed="11.180000" tau="0.100000" carFollowModel="CACC" color="255,255,255"/>
	<vType id="car6" accel="100.0" decel="100.0" sigma="0.0" length="6" minGap="3.000000" maxSpeed="11.180000" tau="0.100000" carFollowModel="CACC" color="255,255,255"/>
	<vType id="car7" accel="100.0" decel="100.0" sigma="0.0" length="7" minGap="3.000000" maxSpeed="11.180000" tau="0.100000" carFollowModel="CACC" color="255,255,255"/>
	<vType id="car8" accel="100.0" decel="100.0" sigma="0.0" length="8" minGap="3.000000" maxSpeed="11.180000" tau="0.100000" carFollowModel="CACC" color="255,255,255"/>
	<vType id="car9" accel="100.0" decel="100.0" sigma="0.0" length="9" minGap="3.000000" maxSpeed="11.180000" tau="0.100000" carFollowModel="CACC" color="255,255,255"/>

	<route id="route1_2" edges=" 1 11 44 33 -2"/>
	<route id="route1_3" edges=" 1 11 44 -3"/>
	<route id="route1_4" edges=" 1 11 -4"/>
	<route id="route2_1" edges=" 2 22 -1"/>
	<route id="route2_3" edges=" 2 22 11 44 -3"/>
	<route id="route2_4" edges=" 2 22 11 -4"/>
	<route id="route3_1" edges=" 3 33 22 -1"/>
	<route id="route3_2" edges=" 3 33 -2"/>
	<route id="route3_4" edges=" 3 33 22 11 -4"/>
	<route id="route4_1" edges=" 4 44 33 22 -1"/>
	<route id="route4_2" edges=" 4 44 33 -2"/>
	<route id="route4_3" edges=" 4 44 -3"/>

	<vehicle id="S_0" type="car7" route="route1_3" depart="0" departLane = "0" departSpeed="11.180000"/>
	<vehicle id="R_1" type="car8" route="route2_1" depart="0" departLane = "1" departSpeed="11.180000"/>
	<vehicle id="L_2" type="car5" route="route3_4" depart="0" departLane = "0" departSpeed="11.180000"/>
	<vehicle id="L_3" type="car8" route="route4_1" depart="0" departLane = "1" departSpeed="11.180000"/>
	<vehicle id="L_4" type="car8" route="route1_2" depart="1" departLane = "0" departSpeed="11.180000"/>
	<vehicle id="L_5" type="car9" route="route2_3" depart="1" departLane = "0" departSpeed="11.180000"/>
	<vehicle id="L_6" type="car9" route="route1_2" depart="2" departLane = "0" departSpeed="11.180000"/>
	<vehicle id="S_7" type="car6" route="route2_4" depart="2" departLane = "1" departSpeed="11.180000"/>
	<vehicle id="S_8" type="car6" route="route4_2" depart="2" departLane = "2" departSpeed="11.180000"/>
	<vehicle id="S_9" type="car9" route="route1_3" depart="3" departLane = "1" departSpeed="11.180000"/>
	<vehicle id="S_10" type="car6" route="route2_4" depart="3" departLane = "0" departSpeed="11.180000"/>
	<vehicle id="R_11" type="car5" route="route3_2" depart="3" departLane = "1" departSpeed="11.180000"/>
	<vehicle id="L_12" type="car5" route="route4_1" depart="3" departLane = "2" departSpeed="11.180000"/>
	<vehicle id="R_13" type="car7" route="route1_4" depart="4" departLane = "2" departSpeed="11.180000"/>
	<vehicle id="L_14" type="car9" route="route2_3" depart="4" departLane = "1" departSpeed="11.180000"/>
	<vehicle id="R_15" type="car6" route="route4_3" depart="4" departLane = "2" departSpeed="11.180000"/>
	<vehicle id="S_16" type="car8" route="route1_3" depart="5" departLane = "2" departSpeed="11.180000"/>
	<vehicle id="S_17" type="car8" route="route2_4" depart="5" departLane = "2" departSpeed="11.180000"/>
	<vehicle id="L_18" type="car8" route="route3_4" depart="5" departLane = "0" departSpeed="11.180000"/>
	<vehicle id="L_19" type="car8" route="route4_1" depart="5" departLane = "1" departSpeed="11.180000"/>
	<vehicle id="R_20" type="car9" route="route1_4" depart="6" departLane = "1" departSpeed="11.180000"/>
	<vehicle id="R_21" type="car7" route="route2_1" depart="6" departLane = "2" departSpeed="11.180000"/>
	<vehicle id="L_22" type="car9" route="route3_4" depart="6" departLane = "2" departSpeed="11.180000"/>
	<vehicle id="R_23" type="car9" route="route4_3" depart="6" departLane = "0" departSpeed="11.180000"/>
	<vehicle id="R_24" type="car8" route="route1_4" depart="7" departLane = "1" departSpeed="11.180000"/>
	<vehicle id="R_25" type="car5" route="route2_1" depart="7" departLane = "1" departSpeed="11.180000"/>
	<vehicle id="L_26" type="car9" route="route3_4" depart="7" departLane = "2" departSpeed="11.180000"/>
	<vehicle id="L_27" type="car6" route="route4_1" depart="7" departLane = "2" departSpeed="11.180000"/>
	<vehicle id="L_28" type="car5" route="route1_2" depart="8" departLane = "0" departSpeed="11.180000"/>
	<vehicle id="R_29" type="car9" route="route2_1" depart="8" departLane = "2" departSpeed="11.180000"/>
	<vehicle id="L_30" type="car7" route="route3_4" depart="8" departLane = "2" departSpeed="11.180000"/>
	<vehicle id="S_31" type="car7" route="route1_3" depart="9" departLane = "1" departSpeed="11.180000"/>
	<vehicle id="R_32" type="car5" route="route2_1" depart="9" departLane = "2" departSpeed="11.180000"/>
	<vehicle id="S_33" type="car9" route="route3_1" depart="9" departLane = "2" departSpeed="11.180000"/>
	<vehicle id="R_34" type="car9" route="route4_3" depart="9" departLane = "2" departSpeed="11.180000"/>
	<vehicle id="L_35" type="car8" route="route1_2" depart="10" departLane = "0" departSpeed="11.180000"/>
	<vehicle id="R_36" type="car9" route="route2_1" depart="10" departLane = "2" departSpeed="11.180000"/>
	<vehicle id="R_37" type="car8" route="route3_2" depart="10" departLane = "2" departSpeed="11.180000"/>
	<vehicle id="L_38" type="car8" route="route4_1" depart="10" departLane = "1" departSpeed="11.180000"/>
	<vehicle id="R_39" type="car9" route="route1_4" depart="11" departLane = "2" departSpeed="11.180000"/>
	<vehicle id="R_40" type="car7" route="route2_1" depart="11" departLane = "2" departSpeed="11.180000"/>
	<vehicle id="R_41" type="car6" route="route3_2" depart="11" departLane = "0" departSpeed="11.180000"/>
	<vehicle id="L_42" type="car9" route="route4_1" depart="11" departLane = "2" departSpeed="11.180000"/>
	<vehicle id="R_43" type="car9" route="route1_4" depart="12" departLane = "0" departSpeed="11.180000"/>
	<vehicle id="L_44" type="car5" route="route2_3" depart="12" departLane = "1" departSpeed="11.180000"/>
	<vehicle id="S_45" type="car5" route="route3_1" depart="12" departLane = "2" departSpeed="11.180000"/>
	<vehicle id="R_46" type="car8" route="route4_3" depart="12" departLane = "0" departSpeed="11.180000"/>
	<vehicle id="L_47" type="car6" route="route1_2" depart="13" departLane = "1" departSpeed="11.180000"/>
	<vehicle id="L_48" type="car6" route="route2_3" depart="13" departLane = "2" departSpeed="11.180000"/>
	<vehicle id="L_49" type="car6" route="route3_4" depart="13" departLane = "0" departSpeed="11.180000"/>
	<vehicle id="L_50" type="car6" route="route4_1" depart="13" departLane = "2" departSpeed="11.180000"/>
	<vehicle id="R_51" type="car7" route="route1_4" depart="14" departLane = "2" departSpeed="11.180000"/>
	<vehicle id="L_52" type="car8" route="route2_3" depart="14" departLane = "1" departSpeed="11.180000"/>
	<vehicle id="L_53" type="car7" route="route3_4" depart="14" departLane = "0" departSpeed="11.180000"/>
	<vehicle id="S_54" type="car6" route="route4_2" depart="14" departLane = "1" departSpeed="11.180000"/>
	<vehicle id="L_55" type="car9" route="route1_2" depart="15" departLane = "1" departSpeed="11.180000"/>
	<vehicle id="S_56" type="car6" route="route4_2" depart="15" departLane = "0" departSpeed="11.180000"/>
	<vehicle id="L_57" type="car5" route="route1_2" depart="16" departLane = "0" departSpeed="11.180000"/>
	<vehicle id="S_58" type="car8" route="route2_4" depart="16" departLane = "0" departSpeed="11.180000"/>
	<vehicle id="R_59" type="car8" route="route3_2" depart="16" departLane = "2" departSpeed="11.180000"/>
	<vehicle id="L_60" type="car9" route="route4_1" depart="16" departLane = "0" departSpeed="11.180000"/>
	<vehicle id="S_61" type="car5" route="route1_3" depart="17" departLane = "2" departSpeed="11.180000"/>
	<vehicle id="R_62" type="car7" route="route2_1" depart="17" departLane = "2" departSpeed="11.180000"/>
	<vehicle id="S_63" type="car5" route="route3_1" depart="17" departLane = "1" departSpeed="11.180000"/>
	<vehicle id="L_64" type="car6" route="route4_1" depart="17" departLane = "0" departSpeed="11.180000"/>
	<vehicle id="S_65" type="car5" route="route1_3" depart="18" departLane = "1" departSpeed="11.180000"/>
	<vehicle id="S_66" type="car7" route="route2_4" depart="18" departLane = "1" departSpeed="11.180000"/>
	<vehicle id="S_67" type="car9" route="route3_1" depart="18" departLane = "1" departSpeed="11.180000"/>
	<vehicle id="R_68" type="car9" route="route4_3" depart="18" departLane = "0" departSpeed="11.180000"/>
	<vehicle id="S_69" type="car9" route="route1_3" depart="19" departLane = "0" departSpeed="11.180000"/>
	<vehicle id="R_70" type="car8" route="route2_1" depart="19" departLane = "2" departSpeed="11.180000"/>
	<vehicle id="L_71" type="car9" route="route3_4" depart="19" departLane = "2" departSpeed="11.180000"/>
	<vehicle id="L_72" type="car6" route="route4_1" depart="19" departLane = "1" departSpeed="11.180000"/>
	<vehicle id="R_73" type="car9" route="route1_4" depart="20" departLane = "0" departSpeed="11.180000"/>
	<vehicle id="S_74" type="car9" route="route2_4" depart="20" departLane = "1" departSpeed="11.180000"/>
	<vehicle id="L_75" type="car8" route="route3_4" depart="20" departLane = "0" departSpeed="11.180000"/>
	<vehicle id="R_76" type="car5" route="route4_3" depart="20" departLane = "1" departSpeed="11.180000"/>
	<vehicle id="S_77" type="car7" route="route1_3" depart="21" departLane = "1" departSpeed="11.180000"/>
	<vehicle id="R_78" type="car7" route="route2_1" depart="21" departLane = "0" departSpeed="11.180000"/>
	<vehicle id="R_79" type="car6" route="route3_2" depart="21" departLane = "2" departSpeed="11.180000"/>
	<vehicle id="R_80" type="car7" route="route4_3" depart="21" departLane = "0" departSpeed="11.180000"/>
	<vehicle id="S_81" type="car9" route="route1_3" depart="22" departLane = "1" departSpeed="11.180000"/>
	<vehicle id="R_82" type="car9" route="route2_1" depart="22" departLane = "2" departSpeed="11.180000"/>
	<vehicle id="S_83" type="car6" route="route3_1" depart="22" departLane = "2" departSpeed="11.180000"/>
	<vehicle id="L_84" type="car5" route="route4_1" depart="22" departLane = "0" departSpeed="11.180000"/>
	<vehicle id="R_85" type="car9" route="route1_4" depart="23" departLane = "0" departSpeed="11.180000"/>
	<vehicle id="S_86" type="car9" route="route2_4" depart="23" departLane = "1" departSpeed="11.180000"/>
	<vehicle id="R_87" type="car7" route="route3_2" depart="23" departLane = "1" departSpeed="11.180000"/>
	<vehicle id="S_88" type="car7" route="route4_2" depart="23" departLane = "0" departSpeed="11.180000"/>
	<vehicle id="S_89" type="car8" route="route1_3" depart="24" departLane = "2" departSpeed="11.180000"/>
	<vehicle id="L_90" type="car5" route="route2_3" depart="24" departLane = "2" departSpeed="11.180000"/>
	<vehicle id="R_91" type="car5" route="route3_2" depart="24" departLane = "1" departSpeed="11.180000"/>
	<vehicle id="S_92" type="car6" route="route4_2" depart="24" departLane = "0" departSpeed="11.180000"/>
	<vehicle id="S_93" type="car9" route="route1_3" depart="25" departLane = "2" departSpeed="11.180000"/>
	<vehicle id="S_94" type="car5" route="route2_4" depart="25" departLane = "1" departSpeed="11.180000"/>
	<vehicle id="L_95" type="car9" route="route3_4" depart="25" departLane = "0" departSpeed="11.180000"/>
	<vehicle id="R_96" type="car7" route="route4_3" depart="25" departLane = "1" departSpeed="11.180000"/>
	<vehicle id="S_97" type="car9" route="route1_3" depart="26" departLane = "2" departSpeed="11.180000"/>
	<vehicle id="L_98" type="car5" route="route3_4" depart="26" departLane = "1" departSpeed="11.180000"/>
	<vehicle id="S_99" type="car5" route="route4_2" depart="26" departLane = "1" departSpeed="11.180000"/>
	<vehicle id="L_100" type="car5" route="route1_2" depart="27" departLane = "0" departSpeed="11.180000"/>
	<vehicle id="S_101" type="car6" route="route2_4" depart="27" departLane = "0" departSpeed="11.180000"/>
	<vehicle id="R_102" type="car8" route="route3_2" depart="27" departLane = "2" departSpeed="11.180000"/>
	<vehicle id="S_103" type="car6" route="route4_2" depart="27" departLane = "1" departSpeed="11.180000"/>
	<vehicle id="R_104" type="car5" route="route1_4" depart="28" departLane = "0" departSpeed="11.180000"/>
	<vehicle id="S_105" type="car9" route="route2_4" depart="28" departLane = "1" departSpeed="11.180000"/>
	<vehicle id="L_106" type="car8" route="route4_1" depart="28" departLane = "1" departSpeed="11.180000"/>
	<vehicle id="R_107" type="car7" route="route1_4" depart="29" departLane = "0" departSpeed="11.180000"/>
	<vehicle id="R_108" type="car7" route="route2_1" depart="29" departLane = "0" departSpeed="11.180000"/>
	<vehicle id="R_109" type="car8" route="route3_2" depart="29" departLane = "1" departSpeed="11.180000"/>
	<vehicle id="L_110" type="car5" route="route4_1" depart="29" departLane = "1" departSpeed="11.180000"/>
	<vehicle id="L_111" type="car9" route="route1_2" depart="30" departLane = "1" departSpeed="11.180000"/>
	<vehicle id="R_112" type="car9" route="route3_2" depart="30" departLane = "0" departSpeed="11.180000"/>
	<vehicle id="R_113" type="car8" route="route4_3" depart="30" departLane = "2" departSpeed="11.180000"/>
	<vehicle id="L_114" type="car6" route="route1_2" depart="31" departLane = "1" departSpeed="11.180000"/>
	<vehicle id="R_115" type="car6" route="route2_1" depart="31" departLane = "1" departSpeed="11.180000"/>
	<vehicle id="R_116" type="car7" route="route3_2" depart="31" departLane = "0" departSpeed="11.180000"/>
	<vehicle id="R_117" type="car5" route="route4_3" depart="31" departLane = "1" departSpeed="11.180000"/>
	<vehicle id="R_118" type="car7" route="route1_4" depart="32" departLane = "2" departSpeed="11.180000"/>
	<vehicle id="L_119" type="car5" route="route3_4" depart="32" departLane = "1" departSpeed="11.180000"/>
	<vehicle id="L_120" type="car9" route="route4_1" depart="32" departLane = "1" departSpeed="11.180000"/>
	<vehicle id="L_121" type="car6" route="route1_2" depart="33" departLane = "1" departSpeed="11.180000"/>
	<vehicle id="L_122" type="car9" route="route2_3" depart="33" departLane = "2" departSpeed="11.180000"/>
	<vehicle id="L_123" type="car5" route="route3_4" depart="33" departLane = "2" departSpeed="11.180000"/>
	<vehicle id="R_124" type="car6" route="route4_3" depart="33" departLane = "0" departSpeed="11.180000"/>
	<vehicle id="S_125" type="car9" route="route1_3" depart="34" departLane = "1" departSpeed="11.180000"/>
	<vehicle id="S_126" type="car5" route="route2_4" depart="34" departLane = "2" departSpeed="11.180000"/>
	<vehicle id="R_127" type="car7" route="route3_2" depart="34" departLane = "0" departSpeed="11.180000"/>
	<vehicle id="L_128" type="car8" route="route4_1" depart="34" departLane = "1" departSpeed="11.180000"/>
	<vehicle id="L_129" type="car5" route="route1_2" depart="35" departLane = "0" departSpeed="11.180000"/>
	<vehicle id="S_130" type="car5" route="route2_4" depart="35" departLane = "1" departSpeed="11.180000"/>
	<vehicle id="R_131" type="car6" route="route3_2" depart="35" departLane = "2" departSpeed="11.180000"/>
	<vehicle id="S_132" type="car6" route="route4_2" depart="35" departLane = "0" departSpeed="11.180000"/>
	<vehicle id="L_133" type="car7" route="route1_2" depart="36" departLane = "1" departSpeed="11.180000"/>
	<vehicle id="R_134" type="car9" route="route2_1" depart="36" departLane = "2" departSpeed="11.180000"/>
	<vehicle id="L_135" type="car6" route="route3_4" depart="36" departLane = "0" departSpeed="11.180000"/>
	<vehicle id="R_136" type="car5" route="route4_3" depart="36" departLane = "2" departSpeed="11.180000"/>
	<vehicle id="S_137" type="car9" route="route1_3" depart="37" departLane = "2" departSpeed="11.180000"/>
	<vehicle id="R_138" type="car6" route="route2_1" depart="37" departLane = "2" departSpeed="11.180000"/>
	<vehicle id="R_139" type="car9" route="route3_2" depart="37" departLane = "1" departSpeed="11.180000"/>
	<vehicle id="S_140" type="car6" route="route4_2" depart="37" departLane = "2" departSpeed="11.180000"/>
	<vehicle id="L_141" type="car8" route="route1_2" depart="38" departLane = "0" departSpeed="11.180000"/>
	<vehicle id="L_142" type="car7" route="route2_3" depart="38" departLane = "2" departSpeed="11.180000"/>
	<vehicle id="L_143" type="car8" route="route3_4" depart="38" departLane = "2" departSpeed="11.180000"/>
	<vehicle id="L_144" type="car6" route="route4_1" depart="38" departLane = "1" departSpeed="11.180000"/>
	<vehicle id="L_145" type="car8" route="route1_2" depart="39" departLane = "0" departSpeed="11.180000"/>
	<vehicle id="L_146" type="car7" route="route3_4" depart="39" departLane = "2" departSpeed="11.180000"/>
	<vehicle id="R_147" type="car6" route="route4_3" depart="39" departLane = "2" departSpeed="11.180000"/>
	<vehicle id="S_148" type="car8" route="route1_3" depart="40" departLane = "1" departSpeed="11.180000"/>
	<vehicle id="L_149" type="car9" route="route2_3" depart="40" departLane = "0" departSpeed="11.180000"/>
	<vehicle id="L_150" type="car5" route="route3_4" depart="40" departLane = "1" departSpeed="11.180000"/>
	<vehicle id="R_151" type="car9" route="route4_3" depart="40" departLane = "1" departSpeed="11.180000"/>
	<vehicle id="S_152" type="car6" route="route1_3" depart="41" departLane = "1" departSpeed="11.180000"/>
	<vehicle id="L_153" type="car8" route="route2_3" depart="41" departLane = "1" departSpeed="11.180000"/>
	<vehicle id="L_154" type="car9" route="route4_1" depart="41" departLane = "1" departSpeed="11.180000"/>
	<vehicle id="R_155" type="car7" route="route1_4" depart="42" departLane = "2" departSpeed="11.180000"/>
	<vehicle id="L_156" type="car9" route="route3_4" depart="42" departLane = "0" departSpeed="11.180000"/>
	<vehicle id="S_157" type="car6" route="route4_2" depart="42" departLane = "1" departSpeed="11.180000"/>
	<vehicle id="R_158" type="car7" route="route1_4" depart="43" departLane = "0" departSpeed="11.180000"/>
	<vehicle id="R_159" type="car9" route="route2_1" depart="43" departLane = "1" departSpeed="11.180000"/>
	<vehicle id="L_160" type="car8" route="route3_4" depart="43" departLane = "2" departSpeed="11.180000"/>
	<vehicle id="S_161" type="car9" route="route4_2" depart="43" departLane = "0" departSpeed="11.180000"/>
	<vehicle id="S_162" type="car6" route="route2_4" depart="44" departLane = "0" departSpeed="11.180000"/>
	<vehicle id="R_163" type="car9" route="route3_2" depart="44" departLane = "0" departSpeed="11.180000"/>
	<vehicle id="L_164" type="car8" route="route4_1" depart="44" departLane = "0" departSpeed="11.180000"/>
	<vehicle id="L_165" type="car7" route="route1_2" depart="45" departLane = "2" departSpeed="11.180000"/>
	<vehicle id="L_166" type="car9" route="route2_3" depart="45" departLane = "0" departSpeed="11.180000"/>
	<vehicle id="S_167" type="car9" route="route3_1" depart="45" departLane = "0" departSpeed="11.180000"/>
	<vehicle id="S_168" type="car5" route="route1_3" depart="46" departLane = "2" departSpeed="11.180000"/>
	<vehicle id="S_169" type="car6" route="route2_4" depart="46" departLane = "0" departSpeed="11.180000"/>
	<vehicle id="L_170" type="car5" route="route4_1" depart="46" departLane = "2" departSpeed="11.180000"/>
	<vehicle id="R_171" type="car8" route="route1_4" depart="47" departLane = "0" departSpeed="11.180000"/>
	<vehicle id="S_172" type="car8" route="route4_2" depart="47" departLane = "1" departSpeed="11.180000"/>
	<vehicle id="S_173" type="car6" route="route1_3" depart="48" departLane = "1" departSpeed="11.180000"/>
	<vehicle id="S_174" type="car9" route="route2_4" depart="48" departLane = "2" departSpeed="11.180000"/>
	<vehicle id="R_175" type="car7" route="route3_2" depart="48" departLane = "0" departSpeed="11.180000"/>
	<vehicle id="R_176" type="car9" route="route4_3" depart="48" departLane = "1" departSpeed="11.180000"/>
	<vehicle id="L_177" type="car9" route="route1_2" depart="49" departLane = "0" departSpeed="11.180000"/>
	<vehicle id="L_178" type="car5" route="route2_3" depart="49" departLane = "0" departSpeed="11.180000"/>
	<vehicle id="S_179" type="car6" route="route3_1" depart="49" departLane = "2" departSpeed="11.180000"/>
	<vehicle id="S_180" type="car6" route="route4_2" depart="49" departLane = "0" departSpeed="11.180000"/>
	<vehicle id="L_181" type="car6" route="route1_2" depart="50" departLane = "2" departSpeed="11.180000"/>
	<vehicle id="R_182" type="car7" route="route2_1" depart="50" departLane = "2" departSpeed="11.180000"/>
	<vehicle id="L_183" type="car6" route="route3_4" depart="50" departLane = "1" departSpeed="11.180000"/>
	<vehicle id="L_184" type="car8" route="route4_1" depart="50" departLane = "1" departSpeed="11.180000"/>
	<vehicle id="R_185" type="car9" route="route1_4" depart="51" departLane = "0" departSpeed="11.180000"/>
	<vehicle id="L_186" type="car7" route="route2_3" depart="51" departLane = "0" departSpeed="11.180000"/>
	<vehicle id="S_187" type="car5" route="route3_1" depart="51" departLane = "0" departSpeed="11.180000"/>
	<vehicle id="S_188" type="car9" route="route4_2" depart="51" departLane = "0" departSpeed="11.180000"/>
	<vehicle id="R_189" type="car6" route="route1_4" depart="52" departLane = "2" departSpeed="11.180000"/>
	<vehicle id="L_190" type="car9" route="route2_3" depart="52" departLane = "1" departSpeed="11.180000"/>
	<vehicle id="L_191" type="car9" route="route3_4" depart="52" departLane = "1" departSpeed="11.180000"/>
	<vehicle id="R_192" type="car7" route="route4_3" depart="52" departLane = "2" departSpeed="11.180000"/>
	<vehicle id="R_193" type="car8" route="route1_4" depart="53" departLane = "1" departSpeed="11.180000"/>
	<vehicle id="R_194" type="car8" route="route2_1" depart="53" departLane = "2" departSpeed="11.180000"/>
	<vehicle id="R_195" type="car9" route="route3_2" depart="53" departLane = "2" departSpeed="11.180000"/>
	<vehicle id="L_196" type="car8" route="route4_1" depart="53" departLane = "2" departSpeed="11.180000"/>
	<vehicle id="L_197" type="car5" route="route1_2" depart="54" departLane = "2" departSpeed="11.180000"/>
	<vehicle id="S_198" type="car9" route="route3_1" depart="54" departLane = "2" departSpeed="11.180000"/>
	<vehicle id="R_199" type="car9" route="route4_3" depart="54" departLane = "1" departSpeed="11.180000"/>
	<vehicle id="R_200" type="car7" route="route1_4" depart="55" departLane = "1" departSpeed="11.180000"/>
	<vehicle id="S_201" type="car9" route="route2_4" depart="55" departLane = "1" departSpeed="11.180000"/>
	<vehicle id="R_202" type="car7" route="route3_2" depart="55" departLane = "0" departSpeed="11.180000"/>
	<vehicle id="S_203" type="car8" route="route4_2" depart="55" departLane = "2" departSpeed="11.180000"/>
	<vehicle id="S_204" type="car7" route="route1_3" depart="56" departLane = "1" departSpeed="11.180000"/>
	<vehicle id="S_205" type="car5" route="route2_4" depart="56" departLane = "2" departSpeed="11.180000"/>
	<vehicle id="S_206" type="car6" route="route3_1" depart="56" departLane = "2" departSpeed="11.180000"/>
	<vehicle id="S_207" type="car7" route="route4_2" depart="56" departLane = "2" departSpeed="11.180000"/>
	<vehicle id="R_208" type="car6" route="route1_4" depart="57" departLane = "1" departSpeed="11.180000"/>
	<vehicle id="R_209" type="car7" route="route2_1" depart="57" departLane = "1" departSpeed="11.180000"/>
	<vehicle id="S_210" type="car9" route="route3_1" depart="57" departLane = "0" departSpeed="11.180000"/>
	<vehicle id="R_211" type="car8" route="route4_3" depart="57" departLane = "1" departSpeed="11.180000"/>
	<vehicle id="L_212" type="car7" route="route1_2" depart="58" departLane = "2" departSpeed="11.180000"/>
	<vehicle id="L_213" type="car8" route="route2_3" depart="58" departLane = "1" departSpeed="11.180000"/>
	<vehicle id="L_214" type="car5" route="route3_4" depart="58" departLane = "2" departSpeed="11.180000"/>
	<vehicle id="S_215" type="car9" route="route4_2" depart="58" departLane = "0" departSpeed="11.180000"/>
	<vehicle id="L_216" type="car5" route="route1_2" depart="59" departLane = "1" departSpeed="11.180000"/>
	<vehicle id="R_217" type="car6" route="route2_1" depart="59" departLane = "0" departSpeed="11.180000"/>
	<vehicle id="R_218" type="car5" route="route3_2" depart="59" departLane = "0" departSpeed="11.180000"/>
	<vehicle id="L_219" type="car7" route="route4_1" depart="59" departLane = "2" departSpeed="11.180000"/>
	<vehicle id="L_220" type="car9" route="route1_2" depart="60" departLane = "0" departSpeed="11.180000"/>
	<vehicle id="L_221" type="car7" route="route2_3" depart="60" departLane = "1" departSpeed="11.180000"/>
	<vehicle id="L_222" type="car9" route="route3_4" depart="60" departLane = "2" departSpeed="11.180000"/>
	<vehicle id="R_223" type="car9" route="route4_3" depart="60" departLane = "1" departSpeed="11.180000"/>
	<vehicle id="S_224" type="car6" route="route1_3" depart="61" departLane = "0" departSpeed="11.180000"/>
	<vehicle id="R_225" type="car9" route="route2_1" depart="61" departLane = "2" departSpeed="11.180000"/>
	<vehicle id="S_226" type="car6" route="route3_1" depart="61" departLane = "2" departSpeed="11.180000"/>
	<vehicle id="R_227" type="car6" route="route4_3" depart="61" departLane = "1" departSpeed="11.180000"/>
	<vehicle id="R_228" type="car9" route="route1_4" depart="62" departLane = "1" departSpeed="11.180000"/>
	<vehicle id="R_229" type="car7" route="route2_1" depart="62" departLane = "0" departSpeed="11.180000"/>
	<vehicle id="S_230" type="car5" route="route4_2" depart="62" departLane = "2" departSpeed="11.180000"/>
	<vehicle id="S_231" type="car8" route="route1_3" depart="63" departLane = "2" departSpeed="11.180000"/>
	<vehicle id="R_232" type="car6" route="route2_1" depart="63" departLane = "1" departSpeed="11.180000"/>
	<vehicle id="L_233" type="car5" route="route3_4" depart="63" departLane = "0" departSpeed="11.180000"/>
	<vehicle id="S_234" type="car9" route="route4_2" depart="63" departLane = "0" departSpeed="11.180000"/>
	<vehicle id="S_235" type="car6" route="route1_3" depart="64" departLane = "2" departSpeed="11.180000"/>
	<vehicle id="L_236" type="car8" route="route2_3" depart="64" departLane = "1" departSpeed="11.180000"/>
	<vehicle id="S_237" type="car6" route="route3_1" depart="64" departLane = "0" departSpeed="11.180000"/>
	<vehicle id="S_238" type="car7" route="route4_2" depart="64" departLane = "1" departSpeed="11.180000"/>
	<vehicle id="R_239" type="car6" route="route1_4" depart="65" departLane = "1" departSpeed="11.180000"/>
	<vehicle id="L_240" type="car7" route="route2_3" depart="65" departLane = "0" departSpeed="11.180000"/>
	<vehicle id="R_241" type="car8" route="route3_2" depart="65" departLane = "0" departSpeed="11.180000"/>
	<vehicle id="S_242" type="car6" route="route4_2" depart="65" departLane = "0" departSpeed="11.180000"/>
	<vehicle id="L_243" type="car5" route="route1_2" depart="66" departLane = "2" departSpeed="11.180000"/>
	<vehicle id="R_244" type="car5" route="route2_1" depart="66" departLane = "0" departSpeed="11.180000"/>
	<vehicle id="S_245" type="car9" route="route3_1" depart="66" departLane = "2" departSpeed="11.180000"/>
	<vehicle id="L_246" type="car7" route="route4_1" depart="66" departLane = "2" departSpeed="11.180000"/>
	<vehicle id="S_247" type="car6" route="route1_3" depart="67" departLane = "2" departSpeed="11.180000"/>
	<vehicle id="R_248" type="car6" route="route2_1" depart="67" departLane = "1" departSpeed="11.180000"/>
	<vehicle id="R_249" type="car6" route="route3_2" depart="67" departLane = "1" departSpeed="11.180000"/>
	<vehicle id="L_250" type="car8" route="route1_2" depart="68" departLane = "1" departSpeed="11.180000"/>
	<vehicle id="R_251" type="car6" route="route2_1" depart="68" departLane = "1" departSpeed="11.180000"/>
	<vehicle id="S_252" type="car7" route="route3_1" depart="68" departLane = "1" departSpeed="11.180000"/>
	<vehicle id="R_253" type="car6" route="route4_3" depart="68" departLane = "0" departSpeed="11.180000"/>
	<vehicle id="S_254" type="car8" route="route2_4" depart="69" departLane = "0" departSpeed="11.180000"/>
	<vehicle id="R_255" type="car9" route="route3_2" depart="69" departLane = "1" departSpeed="11.180000"/>
	<vehicle id="S_256" type="car8" route="route4_2" depart="69" departLane = "0" departSpeed="11.180000"/>
	<vehicle id="S_257" type="car6" route="route1_3" depart="70" departLane = "2" departSpeed="11.180000"/>
	<vehicle id="L_258" type="car5" route="route2_3" depart="70" departLane = "0" departSpeed="11.180000"/>
	<vehicle id="S_259" type="car9" route="route3_1" depart="70" departLane = "2" departSpeed="11.180000"/>
	<vehicle id="R_260" type="car7" route="route4_3" depart="70" departLane = "1" departSpeed="11.180000"/>
	<vehicle id="R_261" type="car7" route="route1_4" depart="71" departLane = "1" departSpeed="11.180000"/>
	<vehicle id="R_262" type="car9" route="route3_2" depart="71" departLane = "0" departSpeed="11.180000"/>
	<vehicle id="R_263" type="car7" route="route4_3" depart="71" departLane = "0" departSpeed="11.180000"/>
	<vehicle id="R_264" type="car5" route="route1_4" depart="72" departLane = "1" departSpeed="11.180000"/>
	<vehicle id="L_265" type="car6" route="route2_3" depart="72" departLane = "1" departSpeed="11.180000"/>
	<vehicle id="R_266" type="car6" route="route3_2" depart="72" departLane = "2" departSpeed="11.180000"/>
	<vehicle id="S_267" type="car7" route="route4_2" depart="72" departLane = "1" departSpeed="11.180000"/>
	<vehicle id="S_268" type="car6" route="route1_3" depart="73" departLane = "1" departSpeed="11.180000"/>
	<vehicle id="S_269" type="car9" route="route2_4" depart="73" departLane = "2" departSpeed="11.180000"/>
	<vehicle id="S_270" type="car9" route="route3_1" depart="73" departLane = "1" departSpeed="11.180000"/>
	<vehicle id="L_271" type="car9" route="route4_1" depart="73" departLane = "2" departSpeed="11.180000"/>
	<vehicle id="S_272" type="car6" route="route3_1" depart="74" departLane = "2" departSpeed="11.180000"/>
	<vehicle id="S_273" type="car8" route="route4_2" depart="74" departLane = "2" departSpeed="11.180000"/>