<routes>

	<vType id="car5" accel="100.0" decel="100.0" sigma="0.0" length="5" minGap="3.000000" maxSpeed="11.180000" tau="0.100000" carFollowModel="CACC" color="255,255,255"/>
	<vType id="car6" accel="100.0" decel="100.0" sigma="0.0" length="6" minGap="3.000000" maxSpeed="11.180000" tau="0.100000" carFollowModel="CACC" color="255,255,255"/>
	<vType id="car7" accel="100.0" decel="100.0" sigma="0.0" length="7" minGap="3.000000" maxSpeed="11.180000" tau="0.100000" carFollowModel="CACC" color="255,255,255"/>
	<vType id="car8" accel="100.0" decel="100.0" sigma="0.0" length="8" minGap="3.000000" maxSpeed="11.180000" tau="0.100000" carFollowModel="CACC" color="255,255,255"/>
	<vType id="car9" accel="100.0" decel="100.0" sigma="0.0" length="9" minGap="3.000000" maxSpeed="11.180000" tau="0.100000" carFollowModel="CACC" color="255,255,255"/>

	<route id="route1_2" edges=" 1 -2"/>
	<route id="route1_3" edges=" 1 -3"/>
	<route id="route1_4" edges=" 1 -4"/>
	<route id="route2_1" edges=" 2 -1"/>
	<route id="route2_3" edges=" 2 -3"/>
	<route id="route2_4" edges=" 2 -4"/>
	<route id="route3_1" edges=" 3 -1"/>
	<route id="route3_2" edges=" 3 -2"/>
	<route id="route3_4" edges=" 3 -4"/>
	<route id="route4_1" edges=" 4 -1"/>
	<route id="route4_2" edges=" 4 -2"/>
	<route id="route4_3" edges=" 4 -3"/>

	<vehicle id="S_0" type="car6" route="route4_2" depart="8" departLane = "2" departSpeed="11.180000"/>
	<vehicle id="R_1" type="car9" route="route3_2" depart="9" departLane = "1" departSpeed="11.180000"/>
	<vehicle id="S_2" type="car7" route="route1_3" depart="12" departLane = "0" departSpeed="11.180000"/>
	<vehicle id="S_3" type="car9" route="route2_4" depart="17" departLane = "2" departSpeed="11.180000"/>
	<vehicle id="S_4" type="car7" route="route2_4" depart="22" departLane = "1" departSpeed="11.180000"/>
	<vehicle id="S_5" type="car9" route="route3_1" depart="25" departLane = "1" departSpeed="11.180000"/>
	<vehicle id="S_6" type="car8" route="route2_4" depart="26" departLane = "1" departSpeed="11.180000"/>
	<vehicle id="R_7" type="car9" route="route3_2" depart="27" departLane = "0" departSpeed="11.180000"/>
	<vehicle id="R_8" type="car5" route="route1_4" depart="29" departLane = "1" departSpeed="11.180000"/>
	<vehicle id="S_9" type="car9" route="route4_2" depart="30" departLane = "0" departSpeed="11.180000"/>
	<vehicle id="R_10" type="car9" route="route1_4" depart="33" departLane = "2" departSpeed="11.180000"/>
	<vehicle id="S_11" type="car6" route="route4_2" depart="36" departLane = "2" departSpeed="11.180000"/>
	<vehicle id="S_12" type="car6" route="route1_3" depart="37" departLane = "0" departSpeed="11.180000"/>
	<vehicle id="R_13" type="car6" route="route1_4" depart="40" departLane = "0" departSpeed="11.180000"/>
	<vehicle id="L_14" type="car6" route="route4_1" depart="42" departLane = "1" departSpeed="11.180000"/>
	<vehicle id="L_15" type="car9" route="route4_1" depart="46" departLane = "2" departSpeed="11.180000"/>
	<vehicle id="L_16" type="car7" route="route2_3" depart="48" departLane = "2" departSpeed="11.180000"/>
	<vehicle id="R_17" type="car8" route="route3_2" depart="48" departLane = "0" departSpeed="11.180000"/>
	<vehicle id="R_18" type="car7" route="route2_1" depart="50" departLane = "0" departSpeed="11.180000"/>
	<vehicle id="R_19" type="car8" route="route3_2" depart="52" departLane = "0" departSpeed="11.180000"/>
	<vehicle id="R_20" type="car8" route="route4_3" depart="53" departLane = "2" departSpeed="11.180000"/>
	<vehicle id="R_21" type="car6" route="route1_4" depart="56" departLane = "0" departSpeed="11.180000"/>
	<vehicle id="S_22" type="car9" route="route2_4" depart="57" departLane = "0" departSpeed="11.180000"/>
	<vehicle id="R_23" type="car7" route="route1_4" depart="59" departLane = "0" departSpeed="11.180000"/>
	<vehicle id="L_24" type="car6" route="route2_3" depart="59" departLane = "1" departSpeed="11.180000"/>
	<vehicle id="S_25" type="car7" route="route4_2" depart="59" departLane = "2" departSpeed="11.180000"/>
	<vehicle id="L_26" type="car8" route="route3_4" depart="63" departLane = "0" departSpeed="11.180000"/>
	<vehicle id="R_27" type="car6" route="route4_3" depart="63" departLane = "0" departSpeed="11.180000"/>
	<vehicle id="S_28" type="car8" route="route1_3" depart="67" departLane = "2" departSpeed="11.180000"/>
	<vehicle id="S_29" type="car6" route="route4_2" depart="68" departLane = "2" departSpeed="11.180000"/>
	<vehicle id="L_30" type="car6" route="route1_2" depart="75" departLane = "0" departSpeed="11.180000"/>
	<vehicle id="R_31" type="car9" route="route3_2" depart="76" departLane = "0" departSpeed="11.180000"/>
	<vehicle id="S_32" type="car5" route="route4_2" depart="76" departLane = "0" departSpeed="11.180000"/>
	<vehicle id="S_33" type="car6" route="route1_3" depart="77" departLane = "2" departSpeed="11.180000"/>
	<vehicle id="L_34" type="car7" route="route3_4" depart="83" departLane = "0" departSpeed="11.180000"/>
	<vehicle id="S_35" type="car9" route="route1_3" depart="84" departLane = "2" departSpeed="11.180000"/>
	<vehicle id="S_36" type="car5" route="route1_3" depart="85" departLane = "1" departSpeed="11.180000"/>
	<vehicle id="S_37" type="car7" route="route4_2" depart="85" departLane = "0" departSpeed="11.180000"/>
	<vehicle id="R_38" type="car5" route="route2_1" depart="88" departLane = "1" departSpeed="11.180000"/>
	<vehicle id="R_39" type="car8" route="route3_2" depart="88" departLane = "1" departSpeed="11.180000"/>
	<vehicle id="S_40" type="car9" route="route2_4" depart="96" departLane = "0" departSpeed="11.180000"/>
	<vehicle id="S_41" type="car9" route="route1_3" depart="98" departLane = "2" departSpeed="11.180000"/>
	<vehicle id="R_42" type="car8" route="route4_3" depart="100" departLane = "2" departSpeed="11.180000"/>
	<vehicle id="L_43" type="car8" route="route1_2" depart="101" departLane = "1" departSpeed="11.180000"/>
	<vehicle id="R_44" type="car9" route="route2_1" depart="101" departLane = "2" departSpeed="11.180000"/>
	<vehicle id="R_45" type="car6" route="route4_3" depart="101" departLane = "0" departSpeed="11.180000"/>
	<vehicle id="L_46" type="car5" route="route1_2" depart="102" departLane = "1" departSpeed="11.180000"/>
	<vehicle id="L_47" type="car6" route="route4_1" depart="102" departLane = "2" departSpeed="11.180000"/>
	<vehicle id="L_48" type="car5" route="route1_2" depart="104" departLane = "1" departSpeed="11.180000"/>
	<vehicle id="S_49" type="car5" route="route1_3" depart="111" departLane = "0" departSpeed="11.180000"/>
	<vehicle id="S_50" type="car7" route="route2_4" depart="111" departLane = "0" departSpeed="11.180000"/>
	<vehicle id="S_51" type="car6" route="route4_2" depart="112" departLane = "1" departSpeed="11.180000"/>
	<vehicle id="R_52" type="car7" route="route2_1" depart="113" departLane = "1" departSpeed="11.180000"/>
	<vehicle id="L_53" type="car8" route="route2_3" depart="119" departLane = "2" departSpeed="11.180000"/>
	<vehicle id="L_54" type="car8" route="route3_4" depart="119" departLane = "0" departSpeed="11.180000"/>
	<vehicle id="L_55" type="car7" route="route1_2" depart="123" departLane = "0" departSpeed="11.180000"/>
	<vehicle id="S_56" type="car6" route="route2_4" depart="125" departLane = "2" departSpeed="11.180000"/>
	<vehicle id="L_57" type="car8" route="route3_4" depart="133" departLane = "0" departSpeed="11.180000"/>
	<vehicle id="S_58" type="car5" route="route4_2" depart="133" departLane = "1" departSpeed="11.180000"/>
	<vehicle id="L_59" type="car5" route="route3_4" depart="134" departLane = "1" departSpeed="11.180000"/>
	<vehicle id="L_60" type="car8" route="route4_1" depart="135" departLane = "0" departSpeed="11.180000"/>
	<vehicle id="L_61" type="car6" route="route1_2" depart="143" departLane = "1" departSpeed="11.180000"/>
	<vehicle id="S_62" type="car5" route="route2_4" depart="143" departLane = "0" departSpeed="11.180000"/>
	<vehicle id="L_63" type="car5" route="route4_1" depart="148" departLane = "0" departSpeed="11.180000"/>
	<vehicle id="L_64" type="car6" route="route4_1" depart="152" departLane = "0" departSpeed="11.180000"/>
	<vehicle id="S_65" type="car5" route="route4_2" depart="155" departLane = "2" departSpeed="11.180000"/>
	<vehicle id="R_66" type="car9" route="route3_2" depart="156" departLane = "2" departSpeed="11.180000"/>
	<vehicle id="L_67" type="car8" route="route2_3" depart="157" departLane = "0" departSpeed="11.180000"/>
	<vehicle id="R_68" type="car8" route="route2_1" depart="158" departLane = "1" departSpeed="11.180000"/>
	<vehicle id="L_69" type="car7" route="route4_1" depart="158" departLane = "0" departSpeed="11.180000"/>
	<vehicle id="R_70" type="car6" route="route2_1" depart="163" departLane = "2" departSpeed="11.180000"/>
	<vehicle id="S_71" type="car6" route="route2_4" depart="170" departLane = "0" departSpeed="11.180000"/>
	<vehicle id="R_72" type="car8" route="route1_4" depart="171" departLane = "2" departSpeed="11.180000"/>
	<vehicle id="S_73" type="car8" route="route2_4" depart="175" departLane = "0" departSpeed="11.180000"/>
	<vehicle id="R_74" type="car8" route="route3_2" depart="178" departLane = "0" departSpeed="11.180000"/>
	<vehicle id="L_75" type="car5" route="route4_1" depart="181" departLane = "1" departSpeed="11.180000"/>
	<vehicle id="L_76" type="car8" route="route1_2" depart="182" departLane = "0" departSpeed="11.180000"/>
	<vehicle id="L_77" type="car9" route="route2_3" depart="182" departLane = "0" departSpeed="11.180000"/>
	<vehicle id="L_78" type="car7" route="route3_4" depart="186" departLane = "2" departSpeed="11.180000"/>
	<vehicle id="L_79" type="car9" route="route1_2" depart="187" departLane = "0" departSpeed="11.180000"/>
	<vehicle id="L_80" type="car5" route="route1_2" depart="189" departLane = "2" departSpeed="11.180000"/>
	<vehicle id="S_81" type="car7" route="route1_3" depart="190" departLane = "2" departSpeed="11.180000"/>
	<vehicle id="L_82" type="car5" route="route1_2" depart="192" departLane = "2" departSpeed="11.180000"/>
	<vehicle id="R_83" type="car5" route="route2_1" depart="192" departLane = "0" departSpeed="11.180000"/>
	<vehicle id="S_84" type="car5" route="route2_4" depart="197" departLane = "2" departSpeed="11.180000"/>
</routes>
