<routes>

	<vType id="car5" accel="1000.0" decel="1000.0" sigma="0.0" length="5" minGap="3.000000" maxSpeed="11.180000" tau="0.100000" carFollowModel="CACC" color="255,255,255"/>
	<vType id="car6" accel="1000.0" decel="1000.0" sigma="0.0" length="6" minGap="3.000000" maxSpeed="11.180000" tau="0.100000" carFollowModel="CACC" color="255,255,255"/>
	<vType id="car7" accel="1000.0" decel="1000.0" sigma="0.0" length="7" minGap="3.000000" maxSpeed="11.180000" tau="0.100000" carFollowModel="CACC" color="255,255,255"/>
	<vType id="car8" accel="1000.0" decel="1000.0" sigma="0.0" length="8" minGap="3.000000" maxSpeed="11.180000" tau="0.100000" carFollowModel="CACC" color="255,255,255"/>
	<vType id="car9" accel="1000.0" decel="1000.0" sigma="0.0" length="9" minGap="3.000000" maxSpeed="11.180000" tau="0.100000" carFollowModel="CACC" color="255,255,255"/>

	<route id="route1_2" edges=" 1 -2"/>
	<route id="route1_3" edges=" 1 -3"/>
	<route id="route1_4" edges=" 1 -4"/>
	<route id="route2_1" edges=" 2 -1"/>
	<route id="route2_3" edges=" 2 -3"/>
	<route id="route2_4" edges=" 2 -4"/>
	<route id="route3_1" edges=" 3 -1"/>
	<route id="route3_2" edges=" 3 -2"/>
	<route id="route3_4" edges=" 3 -4"/>
	<route id="route4_1" edges=" 4 -1"/>
	<route id="route4_2" edges=" 4 -2"/>
	<route id="route4_3" edges=" 4 -3"/>

	<vehicle id="S_0" type="car8" route="route4_2" depart="8" departLane = "2" departSpeed="11.180000"/>
	<vehicle id="R_1" type="car7" route="route3_2" depart="17" departLane = "2" departSpeed="11.180000"/>
	<vehicle id="S_2" type="car9" route="route2_4" depart="27" departLane = "2" departSpeed="11.180000"/>
	<vehicle id="S_3" type="car5" route="route2_4" depart="31" departLane = "2" departSpeed="11.180000"/>
	<vehicle id="S_4" type="car5" route="route2_4" depart="33" departLane = "1" departSpeed="11.180000"/>
	<vehicle id="S_5" type="car8" route="route1_3" depart="38" departLane = "2" departSpeed="11.180000"/>
	<vehicle id="S_6" type="car9" route="route3_1" depart="46" departLane = "2" departSpeed="11.180000"/>
	<vehicle id="R_7" type="car5" route="route2_1" depart="47" departLane = "1" departSpeed="11.180000"/>
	<vehicle id="R_8" type="car9" route="route3_2" depart="53" departLane = "2" departSpeed="11.180000"/>
	<vehicle id="S_9" type="car5" route="route2_4" depart="56" departLane = "1" departSpeed="11.180000"/>
	<vehicle id="R_10" type="car6" route="route2_1" depart="58" departLane = "0" departSpeed="11.180000"/>
	<vehicle id="S_11" type="car9" route="route4_2" depart="59" departLane = "2" departSpeed="11.180000"/>
	<vehicle id="S_12" type="car7" route="route1_3" depart="62" departLane = "0" departSpeed="11.180000"/>
	<vehicle id="R_13" type="car6" route="route3_2" depart="63" departLane = "0" departSpeed="11.180000"/>
	<vehicle id="L_14" type="car9" route="route3_4" depart="65" departLane = "0" departSpeed="11.180000"/>
	<vehicle id="L_15" type="car6" route="route1_2" depart="69" departLane = "1" departSpeed="11.180000"/>
	<vehicle id="L_16" type="car5" route="route2_3" depart="71" departLane = "0" departSpeed="11.180000"/>
	<vehicle id="R_17" type="car9" route="route1_4" depart="77" departLane = "0" departSpeed="11.180000"/>
	<vehicle id="R_18" type="car7" route="route2_1" depart="83" departLane = "0" departSpeed="11.180000"/>
	<vehicle id="R_19" type="car9" route="route4_3" depart="88" departLane = "0" departSpeed="11.180000"/>
	<vehicle id="R_20" type="car7" route="route4_3" depart="92" departLane = "0" departSpeed="11.180000"/>
	<vehicle id="R_21" type="car6" route="route1_4" depart="95" departLane = "2" departSpeed="11.180000"/>
	<vehicle id="S_22" type="car8" route="route2_4" depart="98" departLane = "1" departSpeed="11.180000"/>
	<vehicle id="R_23" type="car9" route="route2_1" depart="99" departLane = "2" departSpeed="11.180000"/>
	<vehicle id="L_24" type="car8" route="route3_4" depart="101" departLane = "2" departSpeed="11.180000"/>
	<vehicle id="S_25" type="car8" route="route4_2" depart="105" departLane = "1" departSpeed="11.180000"/>
	<vehicle id="L_26" type="car5" route="route3_4" depart="107" departLane = "1" departSpeed="11.180000"/>
	<vehicle id="R_27" type="car8" route="route4_3" depart="112" departLane = "1" departSpeed="11.180000"/>
	<vehicle id="S_28" type="car7" route="route2_4" depart="113" departLane = "1" departSpeed="11.180000"/>
	<vehicle id="S_29" type="car6" route="route2_4" depart="114" departLane = "1" departSpeed="11.180000"/>
	<vehicle id="L_30" type="car7" route="route3_4" depart="114" departLane = "0" departSpeed="11.180000"/>
	<vehicle id="R_31" type="car5" route="route3_2" depart="116" departLane = "1" departSpeed="11.180000"/>
	<vehicle id="S_32" type="car7" route="route3_1" depart="118" departLane = "0" departSpeed="11.180000"/>
	<vehicle id="S_33" type="car7" route="route3_1" depart="127" departLane = "2" departSpeed="11.180000"/>
	<vehicle id="L_34" type="car5" route="route2_3" depart="137" departLane = "1" departSpeed="11.180000"/>
	<vehicle id="S_35" type="car9" route="route3_1" depart="137" departLane = "1" departSpeed="11.180000"/>
	<vehicle id="S_36" type="car7" route="route1_3" depart="153" departLane = "1" departSpeed="11.180000"/>
	<vehicle id="S_37" type="car5" route="route3_1" depart="159" departLane = "1" departSpeed="11.180000"/>
	<vehicle id="R_38" type="car6" route="route3_2" depart="160" departLane = "2" departSpeed="11.180000"/>
	<vehicle id="R_39" type="car9" route="route4_3" depart="162" departLane = "2" departSpeed="11.180000"/>
	<vehicle id="S_40" type="car6" route="route2_4" depart="165" departLane = "0" departSpeed="11.180000"/>
	<vehicle id="S_41" type="car8" route="route1_3" depart="166" departLane = "0" departSpeed="11.180000"/>
	<vehicle id="R_42" type="car6" route="route2_1" depart="169" departLane = "0" departSpeed="11.180000"/>
	<vehicle id="L_43" type="car5" route="route3_4" depart="172" departLane = "2" departSpeed="11.180000"/>
	<vehicle id="R_44" type="car8" route="route4_3" depart="172" departLane = "1" departSpeed="11.180000"/>
	<vehicle id="R_45" type="car8" route="route1_4" depart="173" departLane = "1" departSpeed="11.180000"/>
	<vehicle id="L_46" type="car6" route="route2_3" depart="176" departLane = "0" departSpeed="11.180000"/>
	<vehicle id="L_47" type="car8" route="route3_4" depart="188" departLane = "0" departSpeed="11.180000"/>
	<vehicle id="L_48" type="car7" route="route2_3" depart="193" departLane = "2" departSpeed="11.180000"/>
	<vehicle id="S_49" type="car9" route="route2_4" depart="200" departLane = "2" departSpeed="11.180000"/>
	<vehicle id="S_50" type="car6" route="route3_1" depart="200" departLane = "2" departSpeed="11.180000"/>
	<vehicle id="S_51" type="car5" route="route2_4" depart="201" departLane = "0" departSpeed="11.180000"/>
	<vehicle id="R_52" type="car7" route="route3_2" depart="201" departLane = "2" departSpeed="11.180000"/>
	<vehicle id="L_53" type="car8" route="route1_2" depart="202" departLane = "2" departSpeed="11.180000"/>
	<vehicle id="L_54" type="car9" route="route3_4" depart="204" departLane = "1" departSpeed="11.180000"/>
	<vehicle id="L_55" type="car8" route="route4_1" depart="205" departLane = "0" departSpeed="11.180000"/>
	<vehicle id="S_56" type="car8" route="route1_3" depart="212" departLane = "1" departSpeed="11.180000"/>
	<vehicle id="L_57" type="car8" route="route2_3" depart="212" departLane = "0" departSpeed="11.180000"/>
	<vehicle id="S_58" type="car5" route="route1_3" depart="218" departLane = "2" departSpeed="11.180000"/>
	<vehicle id="L_59" type="car7" route="route3_4" depart="224" departLane = "0" departSpeed="11.180000"/>
	<vehicle id="L_60" type="car9" route="route2_3" depart="226" departLane = "0" departSpeed="11.180000"/>
	<vehicle id="L_61" type="car7" route="route3_4" depart="226" departLane = "0" departSpeed="11.180000"/>
	<vehicle id="S_62" type="car6" route="route1_3" depart="238" departLane = "2" departSpeed="11.180000"/>
	<vehicle id="L_63" type="car7" route="route2_3" depart="245" departLane = "0" departSpeed="11.180000"/>
	<vehicle id="L_64" type="car6" route="route1_2" depart="252" departLane = "1" departSpeed="11.180000"/>
	<vehicle id="S_65" type="car6" route="route1_3" depart="254" departLane = "0" departSpeed="11.180000"/>
	<vehicle id="R_66" type="car9" route="route3_2" depart="264" departLane = "0" departSpeed="11.180000"/>
	<vehicle id="L_67" type="car6" route="route4_1" depart="267" departLane = "2" departSpeed="11.180000"/>
	<vehicle id="R_68" type="car6" route="route1_4" depart="268" departLane = "2" departSpeed="11.180000"/>
	<vehicle id="L_69" type="car5" route="route2_3" depart="268" departLane = "2" departSpeed="11.180000"/>
	<vehicle id="R_70" type="car6" route="route1_4" depart="274" departLane = "0" departSpeed="11.180000"/>
	<vehicle id="S_71" type="car5" route="route3_1" depart="277" departLane = "2" departSpeed="11.180000"/>
	<vehicle id="R_72" type="car6" route="route1_4" depart="280" departLane = "1" departSpeed="11.180000"/>
	<vehicle id="S_73" type="car8" route="route3_1" depart="282" departLane = "2" departSpeed="11.180000"/>
	<vehicle id="R_74" type="car7" route="route4_3" depart="282" departLane = "0" departSpeed="11.180000"/>
	<vehicle id="L_75" type="car9" route="route4_1" depart="286" departLane = "1" departSpeed="11.180000"/>
	<vehicle id="L_76" type="car5" route="route1_2" depart="287" departLane = "0" departSpeed="11.180000"/>
	<vehicle id="L_77" type="car6" route="route2_3" depart="302" departLane = "1" departSpeed="11.180000"/>
	<vehicle id="L_78" type="car8" route="route2_3" depart="303" departLane = "2" departSpeed="11.180000"/>
	<vehicle id="L_79" type="car7" route="route3_4" depart="303" departLane = "1" departSpeed="11.180000"/>
	<vehicle id="L_80" type="car8" route="route1_2" depart="305" departLane = "2" departSpeed="11.180000"/>
	<vehicle id="S_81" type="car8" route="route3_1" depart="307" departLane = "0" departSpeed="11.180000"/>
	<vehicle id="L_82" type="car9" route="route1_2" depart="315" departLane = "2" departSpeed="11.180000"/>
	<vehicle id="R_83" type="car7" route="route4_3" depart="317" departLane = "0" departSpeed="11.180000"/>
	<vehicle id="S_84" type="car8" route="route4_2" depart="323" departLane = "0" departSpeed="11.180000"/>
	<vehicle id="L_85" type="car5" route="route3_4" depart="324" departLane = "1" departSpeed="11.180000"/>
	<vehicle id="S_86" type="car5" route="route4_2" depart="325" departLane = "2" departSpeed="11.180000"/>
	<vehicle id="L_87" type="car6" route="route3_4" depart="331" departLane = "2" departSpeed="11.180000"/>
	<vehicle id="S_88" type="car9" route="route2_4" depart="332" departLane = "1" departSpeed="11.180000"/>
	<vehicle id="R_89" type="car9" route="route4_3" depart="335" departLane = "1" departSpeed="11.180000"/>
	<vehicle id="L_90" type="car7" route="route2_3" depart="348" departLane = "1" departSpeed="11.180000"/>
	<vehicle id="R_91" type="car8" route="route3_2" depart="349" departLane = "0" departSpeed="11.180000"/>
	<vehicle id="L_92" type="car9" route="route3_4" depart="351" departLane = "1" departSpeed="11.180000"/>
	<vehicle id="R_93" type="car9" route="route4_3" depart="351" departLane = "0" departSpeed="11.180000"/>
	<vehicle id="L_94" type="car8" route="route2_3" depart="355" departLane = "0" departSpeed="11.180000"/>
	<vehicle id="L_95" type="car5" route="route4_1" depart="355" departLane = "1" departSpeed="11.180000"/>
	<vehicle id="S_96" type="car5" route="route4_2" depart="364" departLane = "2" departSpeed="11.180000"/>
	<vehicle id="L_97" type="car5" route="route3_4" depart="369" departLane = "1" departSpeed="11.180000"/>
	<vehicle id="R_98" type="car9" route="route4_3" depart="371" departLane = "1" departSpeed="11.180000"/>
	<vehicle id="L_99" type="car9" route="route1_2" depart="375" departLane = "1" departSpeed="11.180000"/>
	<vehicle id="R_100" type="car6" route="route1_4" depart="376" departLane = "0" departSpeed="11.180000"/>
	<vehicle id="L_101" type="car5" route="route3_4" depart="383" departLane = "0" departSpeed="11.180000"/>
	<vehicle id="R_102" type="car6" route="route1_4" depart="385" departLane = "2" departSpeed="11.180000"/>
	<vehicle id="R_103" type="car9" route="route2_1" depart="388" departLane = "0" departSpeed="11.180000"/>
	<vehicle id="L_104" type="car7" route="route4_1" depart="388" departLane = "2" departSpeed="11.180000"/>
	<vehicle id="S_105" type="car9" route="route1_3" depart="394" departLane = "1" departSpeed="11.180000"/>
	<vehicle id="S_106" type="car7" route="route4_2" depart="395" departLane = "1" departSpeed="11.180000"/>
	<vehicle id="S_107" type="car7" route="route4_2" depart="398" departLane = "1" departSpeed="11.180000"/>
	<vehicle id="L_108" type="car7" route="route4_1" depart="401" departLane = "0" departSpeed="11.180000"/>
	<vehicle id="R_109" type="car7" route="route1_4" depart="407" departLane = "2" departSpeed="11.180000"/>
	<vehicle id="S_110" type="car5" route="route1_3" depart="408" departLane = "2" departSpeed="11.180000"/>
	<vehicle id="R_111" type="car7" route="route3_2" depart="412" departLane = "0" departSpeed="11.180000"/>
	<vehicle id="R_112" type="car8" route="route3_2" depart="415" departLane = "1" departSpeed="11.180000"/>
	<vehicle id="L_113" type="car8" route="route1_2" depart="418" departLane = "2" departSpeed="11.180000"/>
	<vehicle id="R_114" type="car9" route="route4_3" depart="419" departLane = "1" departSpeed="11.180000"/>
	<vehicle id="S_115" type="car6" route="route2_4" depart="428" departLane = "1" departSpeed="11.180000"/>
	<vehicle id="R_116" type="car8" route="route3_2" depart="428" departLane = "0" departSpeed="11.180000"/>
	<vehicle id="S_117" type="car5" route="route2_4" depart="430" departLane = "0" departSpeed="11.180000"/>
	<vehicle id="R_118" type="car9" route="route4_3" depart="433" departLane = "0" departSpeed="11.180000"/>
	<vehicle id="R_119" type="car6" route="route1_4" depart="438" departLane = "2" departSpeed="11.180000"/>
	<vehicle id="R_120" type="car5" route="route2_1" depart="447" departLane = "2" departSpeed="11.180000"/>
	<vehicle id="S_121" type="car7" route="route4_2" depart="450" departLane = "0" departSpeed="11.180000"/>
	<vehicle id="R_122" type="car5" route="route1_4" depart="453" departLane = "0" departSpeed="11.180000"/>
	<vehicle id="S_123" type="car9" route="route4_2" depart="456" departLane = "1" departSpeed="11.180000"/>
	<vehicle id="S_124" type="car6" route="route1_3" depart="457" departLane = "2" departSpeed="11.180000"/>
	<vehicle id="S_125" type="car6" route="route2_4" depart="468" departLane = "0" departSpeed="11.180000"/>
	<vehicle id="L_126" type="car6" route="route3_4" depart="469" departLane = "2" departSpeed="11.180000"/>
	<vehicle id="L_127" type="car5" route="route4_1" depart="470" departLane = "1" departSpeed="11.180000"/>
	<vehicle id="S_128" type="car6" route="route1_3" depart="471" departLane = "1" departSpeed="11.180000"/>
	<vehicle id="L_129" type="car9" route="route4_1" depart="472" departLane = "1" departSpeed="11.180000"/>
	<vehicle id="S_130" type="car5" route="route3_1" depart="475" departLane = "2" departSpeed="11.180000"/>
	<vehicle id="S_131" type="car6" route="route2_4" depart="478" departLane = "1" departSpeed="11.180000"/>
	<vehicle id="L_132" type="car9" route="route4_1" depart="483" departLane = "2" departSpeed="11.180000"/>
	<vehicle id="L_133" type="car5" route="route3_4" depart="488" departLane = "2" departSpeed="11.180000"/>
	<vehicle id="S_134" type="car5" route="route4_2" depart="489" departLane = "2" departSpeed="11.180000"/>
	<vehicle id="S_135" type="car6" route="route3_1" depart="490" departLane = "1" departSpeed="11.180000"/>
	<vehicle id="S_136" type="car9" route="route4_2" depart="496" departLane = "1" departSpeed="11.180000"/>
	<vehicle id="S_137" type="car9" route="route4_2" depart="507" departLane = "0" departSpeed="11.180000"/>
	<vehicle id="S_138" type="car5" route="route4_2" depart="510" departLane = "0" departSpeed="11.180000"/>
	<vehicle id="S_139" type="car9" route="route4_2" depart="514" departLane = "2" departSpeed="11.180000"/>
	<vehicle id="R_140" type="car7" route="route3_2" depart="516" departLane = "0" departSpeed="11.180000"/>
	<vehicle id="S_141" type="car8" route="route2_4" depart="523" departLane = "2" departSpeed="11.180000"/>
	<vehicle id="S_142" type="car8" route="route2_4" depart="536" departLane = "1" departSpeed="11.180000"/>
	<vehicle id="R_143" type="car6" route="route4_3" depart="540" departLane = "0" departSpeed="11.180000"/>
	<vehicle id="R_144" type="car8" route="route2_1" depart="547" departLane = "0" departSpeed="11.180000"/>
	<vehicle id="R_145" type="car9" route="route4_3" depart="561" departLane = "1" departSpeed="11.180000"/>
	<vehicle id="L_146" type="car9" route="route2_3" depart="563" departLane = "2" departSpeed="11.180000"/>
	<vehicle id="R_147" type="car6" route="route2_1" depart="571" departLane = "0" departSpeed="11.180000"/>
	<vehicle id="R_148" type="car8" route="route2_1" depart="575" departLane = "1" departSpeed="11.180000"/>
	<vehicle id="R_149" type="car8" route="route3_2" depart="579" departLane = "2" departSpeed="11.180000"/>
	<vehicle id="L_150" type="car9" route="route4_1" depart="579" departLane = "1" departSpeed="11.180000"/>
	<vehicle id="R_151" type="car8" route="route3_2" depart="581" departLane = "0" departSpeed="11.180000"/>
	<vehicle id="L_152" type="car8" route="route2_3" depart="590" departLane = "2" departSpeed="11.180000"/>
	<vehicle id="S_153" type="car9" route="route3_1" depart="591" departLane = "1" departSpeed="11.180000"/>
	<vehicle id="L_154" type="car7" route="route2_3" depart="593" departLane = "1" departSpeed="11.180000"/>
	<vehicle id="R_155" type="car5" route="route4_3" depart="600" departLane = "0" departSpeed="11.180000"/>
	<vehicle id="R_156" type="car9" route="route4_3" depart="607" departLane = "1" departSpeed="11.180000"/>
	<vehicle id="S_157" type="car8" route="route4_2" depart="608" departLane = "0" departSpeed="11.180000"/>
	<vehicle id="S_158" type="car8" route="route4_2" depart="610" departLane = "1" departSpeed="11.180000"/>
	<vehicle id="L_159" type="car7" route="route1_2" depart="620" departLane = "1" departSpeed="11.180000"/>
	<vehicle id="R_160" type="car8" route="route3_2" depart="624" departLane = "1" departSpeed="11.180000"/>
	<vehicle id="S_161" type="car6" route="route4_2" depart="625" departLane = "1" departSpeed="11.180000"/>
	<vehicle id="R_162" type="car8" route="route1_4" depart="628" departLane = "2" departSpeed="11.180000"/>
	<vehicle id="R_163" type="car7" route="route1_4" depart="635" departLane = "0" departSpeed="11.180000"/>
	<vehicle id="R_164" type="car5" route="route2_1" depart="635" departLane = "1" departSpeed="11.180000"/>
	<vehicle id="R_165" type="car5" route="route3_2" depart="635" departLane = "2" departSpeed="11.180000"/>
	<vehicle id="L_166" type="car9" route="route1_2" depart="637" departLane = "2" departSpeed="11.180000"/>
	<vehicle id="S_167" type="car6" route="route2_4" depart="647" departLane = "0" departSpeed="11.180000"/>
	<vehicle id="R_168" type="car7" route="route2_1" depart="650" departLane = "2" departSpeed="11.180000"/>
	<vehicle id="L_169" type="car6" route="route4_1" depart="654" departLane = "1" departSpeed="11.180000"/>
	<vehicle id="S_170" type="car5" route="route3_1" depart="656" departLane = "1" departSpeed="11.180000"/>
	<vehicle id="L_171" type="car7" route="route2_3" depart="657" departLane = "2" departSpeed="11.180000"/>
	<vehicle id="L_172" type="car6" route="route4_1" depart="661" departLane = "2" departSpeed="11.180000"/>
	<vehicle id="L_173" type="car6" route="route2_3" depart="666" departLane = "1" departSpeed="11.180000"/>
	<vehicle id="R_174" type="car9" route="route1_4" depart="669" departLane = "0" departSpeed="11.180000"/>
	<vehicle id="L_175" type="car6" route="route3_4" depart="672" departLane = "2" departSpeed="11.180000"/>
	<vehicle id="S_176" type="car9" route="route2_4" depart="676" departLane = "2" departSpeed="11.180000"/>
	<vehicle id="R_177" type="car8" route="route4_3" depart="677" departLane = "0" departSpeed="11.180000"/>
	<vehicle id="R_178" type="car8" route="route1_4" depart="679" departLane = "2" departSpeed="11.180000"/>
	<vehicle id="L_179" type="car6" route="route3_4" depart="681" departLane = "1" departSpeed="11.180000"/>
	<vehicle id="L_180" type="car5" route="route1_2" depart="689" departLane = "1" departSpeed="11.180000"/>
	<vehicle id="S_181" type="car8" route="route3_1" depart="689" departLane = "2" departSpeed="11.180000"/>
	<vehicle id="S_182" type="car6" route="route3_1" depart="707" departLane = "0" departSpeed="11.180000"/>
	<vehicle id="L_183" type="car6" route="route1_2" depart="716" departLane = "1" departSpeed="11.180000"/>
	<vehicle id="R_184" type="car9" route="route2_1" depart="723" departLane = "2" departSpeed="11.180000"/>
	<vehicle id="S_185" type="car6" route="route3_1" depart="729" departLane = "0" departSpeed="11.180000"/>
	<vehicle id="S_186" type="car6" route="route1_3" depart="732" departLane = "2" departSpeed="11.180000"/>
	<vehicle id="S_187" type="car5" route="route2_4" depart="745" departLane = "0" departSpeed="11.180000"/>
	<vehicle id="R_188" type="car7" route="route2_1" depart="753" departLane = "0" departSpeed="11.180000"/>
	<vehicle id="L_189" type="car8" route="route3_4" depart="760" departLane = "0" departSpeed="11.180000"/>
	<vehicle id="S_190" type="car9" route="route2_4" depart="763" departLane = "0" departSpeed="11.180000"/>
	<vehicle id="L_191" type="car8" route="route1_2" depart="771" departLane = "1" departSpeed="11.180000"/>
	<vehicle id="L_192" type="car8" route="route2_3" depart="772" departLane = "2" departSpeed="11.180000"/>
	<vehicle id="R_193" type="car7" route="route4_3" depart="781" departLane = "1" departSpeed="11.180000"/>
	<vehicle id="R_194" type="car5" route="route2_1" depart="782" departLane = "0" departSpeed="11.180000"/>
	<vehicle id="S_195" type="car7" route="route2_4" depart="785" departLane = "2" departSpeed="11.180000"/>
	<vehicle id="L_196" type="car7" route="route3_4" depart="786" departLane = "1" departSpeed="11.180000"/>
	<vehicle id="L_197" type="car8" route="route3_4" depart="789" departLane = "0" departSpeed="11.180000"/>
	<vehicle id="L_198" type="car9" route="route2_3" depart="790" departLane = "2" departSpeed="11.180000"/>
	<vehicle id="S_199" type="car8" route="route1_3" depart="793" departLane = "0" departSpeed="11.180000"/>
	<vehicle id="L_200" type="car8" route="route1_2" depart="794" departLane = "1" departSpeed="11.180000"/>
	<vehicle id="R_201" type="car7" route="route3_2" depart="797" departLane = "0" departSpeed="11.180000"/>
	<vehicle id="S_202" type="car5" route="route2_4" depart="799" departLane = "1" departSpeed="11.180000"/>
	<vehicle id="L_203" type="car6" route="route1_2" depart="805" departLane = "0" departSpeed="11.180000"/>
	<vehicle id="L_204" type="car8" route="route2_3" depart="807" departLane = "0" departSpeed="11.180000"/>
	<vehicle id="L_205" type="car9" route="route3_4" depart="808" departLane = "0" departSpeed="11.180000"/>
	<vehicle id="R_206" type="car5" route="route2_1" depart="810" departLane = "1" departSpeed="11.180000"/>
	<vehicle id="S_207" type="car5" route="route3_1" depart="813" departLane = "2" departSpeed="11.180000"/>
	<vehicle id="S_208" type="car8" route="route2_4" depart="827" departLane = "0" departSpeed="11.180000"/>
	<vehicle id="R_209" type="car8" route="route2_1" depart="839" departLane = "0" departSpeed="11.180000"/>
	<vehicle id="R_210" type="car7" route="route3_2" depart="840" departLane = "2" departSpeed="11.180000"/>
	<vehicle id="L_211" type="car5" route="route1_2" depart="850" departLane = "2" departSpeed="11.180000"/>
	<vehicle id="S_212" type="car6" route="route1_3" depart="854" departLane = "0" departSpeed="11.180000"/>
	<vehicle id="L_213" type="car9" route="route3_4" depart="859" departLane = "2" departSpeed="11.180000"/>
	<vehicle id="L_214" type="car7" route="route1_2" depart="864" departLane = "0" departSpeed="11.180000"/>
	<vehicle id="R_215" type="car5" route="route2_1" depart="865" departLane = "0" departSpeed="11.180000"/>
	<vehicle id="L_216" type="car7" route="route3_4" depart="874" departLane = "1" departSpeed="11.180000"/>
	<vehicle id="S_217" type="car7" route="route2_4" depart="875" departLane = "2" departSpeed="11.180000"/>
	<vehicle id="S_218" type="car6" route="route4_2" depart="879" departLane = "0" departSpeed="11.180000"/>
	<vehicle id="R_219" type="car8" route="route4_3" depart="880" departLane = "1" departSpeed="11.180000"/>
	<vehicle id="S_220" type="car5" route="route3_1" depart="881" departLane = "0" departSpeed="11.180000"/>
	<vehicle id="R_221" type="car9" route="route1_4" depart="884" departLane = "1" departSpeed="11.180000"/>
	<vehicle id="L_222" type="car6" route="route1_2" depart="886" departLane = "2" departSpeed="11.180000"/>
	<vehicle id="R_223" type="car5" route="route2_1" depart="887" departLane = "0" departSpeed="11.180000"/>
	<vehicle id="L_224" type="car9" route="route4_1" depart="887" departLane = "2" departSpeed="11.180000"/>
	<vehicle id="R_225" type="car5" route="route3_2" depart="891" departLane = "2" departSpeed="11.180000"/>
	<vehicle id="R_226" type="car6" route="route4_3" depart="892" departLane = "2" departSpeed="11.180000"/>
	<vehicle id="L_227" type="car7" route="route2_3" depart="894" departLane = "1" departSpeed="11.180000"/>
	<vehicle id="R_228" type="car5" route="route3_2" depart="906" departLane = "0" departSpeed="11.180000"/>
	<vehicle id="R_229" type="car7" route="route3_2" depart="913" departLane = "1" departSpeed="11.180000"/>
	<vehicle id="L_230" type="car9" route="route4_1" depart="915" departLane = "1" departSpeed="11.180000"/>
	<vehicle id="L_231" type="car8" route="route3_4" depart="921" departLane = "2" departSpeed="11.180000"/>
	<vehicle id="S_232" type="car7" route="route1_3" depart="929" departLane = "0" departSpeed="11.180000"/>
	<vehicle id="L_233" type="car7" route="route4_1" depart="929" departLane = "2" departSpeed="11.180000"/>
	<vehicle id="L_234" type="car8" route="route2_3" depart="932" departLane = "2" departSpeed="11.180000"/>
	<vehicle id="S_235" type="car8" route="route1_3" depart="936" departLane = "0" departSpeed="11.180000"/>
	<vehicle id="S_236" type="car6" route="route4_2" depart="940" departLane = "1" departSpeed="11.180000"/>
	<vehicle id="S_237" type="car5" route="route1_3" depart="953" departLane = "2" departSpeed="11.180000"/>
	<vehicle id="L_238" type="car6" route="route2_3" depart="960" departLane = "1" departSpeed="11.180000"/>
	<vehicle id="S_239" type="car5" route="route3_1" depart="961" departLane = "2" departSpeed="11.180000"/>
	<vehicle id="R_240" type="car7" route="route4_3" depart="962" departLane = "2" departSpeed="11.180000"/>
	<vehicle id="L_241" type="car5" route="route3_4" depart="964" departLane = "1" departSpeed="11.180000"/>
	<vehicle id="S_242" type="car5" route="route4_2" depart="964" departLane = "2" departSpeed="11.180000"/>
	<vehicle id="L_243" type="car9" route="route3_4" depart="965" departLane = "2" departSpeed="11.180000"/>
	<vehicle id="R_244" type="car9" route="route3_2" depart="966" departLane = "2" departSpeed="11.180000"/>
	<vehicle id="S_245" type="car8" route="route4_2" depart="974" departLane = "1" departSpeed="11.180000"/>
	<vehicle id="S_246" type="car9" route="route3_1" depart="987" departLane = "1" departSpeed="11.180000"/>
	<vehicle id="L_247" type="car9" route="route2_3" depart="988" departLane = "2" departSpeed="11.180000"/>
	<vehicle id="L_248" type="car7" route="route4_1" depart="991" departLane = "1" departSpeed="11.180000"/>
	<vehicle id="S_249" type="car9" route="route2_4" depart="992" departLane = "1" departSpeed="11.180000"/>
	<vehicle id="S_250" type="car5" route="route1_3" depart="993" departLane = "2" departSpeed="11.180000"/>
	<vehicle id="R_251" type="car8" route="route3_2" depart="995" departLane = "1" departSpeed="11.180000"/>
	<vehicle id="R_252" type="car6" route="route2_1" depart="1002" departLane = "2" departSpeed="11.180000"/>
	<vehicle id="R_253" type="car9" route="route4_3" depart="1004" departLane = "0" departSpeed="11.180000"/>
	<vehicle id="R_254" type="car8" route="route3_2" depart="1010" departLane = "0" departSpeed="11.180000"/>
	<vehicle id="L_255" type="car9" route="route3_4" depart="1021" departLane = "1" departSpeed="11.180000"/>
	<vehicle id="S_256" type="car5" route="route1_3" depart="1022" departLane = "0" departSpeed="11.180000"/>
	<vehicle id="S_257" type="car6" route="route3_1" depart="1026" departLane = "1" departSpeed="11.180000"/>
	<vehicle id="R_258" type="car7" route="route4_3" depart="1028" departLane = "2" departSpeed="11.180000"/>
	<vehicle id="L_259" type="car7" route="route1_2" depart="1032" departLane = "0" departSpeed="11.180000"/>
	<vehicle id="L_260" type="car7" route="route3_4" depart="1039" departLane = "1" departSpeed="11.180000"/>
	<vehicle id="L_261" type="car5" route="route4_1" depart="1040" departLane = "1" departSpeed="11.180000"/>
	<vehicle id="L_262" type="car8" route="route3_4" depart="1048" departLane = "2" departSpeed="11.180000"/>
	<vehicle id="R_263" type="car8" route="route3_2" depart="1049" departLane = "0" departSpeed="11.180000"/>
	<vehicle id="R_264" type="car8" route="route2_1" depart="1050" departLane = "1" departSpeed="11.180000"/>
	<vehicle id="R_265" type="car8" route="route2_1" depart="1054" departLane = "1" departSpeed="11.180000"/>
	<vehicle id="L_266" type="car9" route="route1_2" depart="1055" departLane = "2" departSpeed="11.180000"/>
	<vehicle id="S_267" type="car6" route="route2_4" depart="1055" departLane = "0" departSpeed="11.180000"/>
	<vehicle id="L_268" type="car5" route="route3_4" depart="1065" departLane = "0" departSpeed="11.180000"/>
	<vehicle id="S_269" type="car8" route="route4_2" depart="1067" departLane = "0" departSpeed="11.180000"/>
	<vehicle id="R_270" type="car7" route="route2_1" depart="1072" departLane = "1" departSpeed="11.180000"/>