<routes>

	<vType id="car5" accel="100.0" decel="100.0" sigma="0.0" length="5" minGap="1.0" maxSpeed="11.180000" carFollowModel="CACC" color="255,255,255"/>
	<vType id="car6" accel="100.0" decel="100.0" sigma="0.0" length="6" minGap="1.0" maxSpeed="11.180000" carFollowModel="CACC" color="255,255,255"/>
	<vType id="car7" accel="100.0" decel="100.0" sigma="0.0" length="7" minGap="1.0" maxSpeed="11.180000" carFollowModel="CACC" color="255,255,255"/>
	<vType id="car8" accel="100.0" decel="100.0" sigma="0.0" length="8" minGap="1.0" maxSpeed="11.180000" carFollowModel="CACC" color="255,255,255"/>
	<vType id="car9" accel="100.0" decel="100.0" sigma="0.0" length="9" minGap="1.0" maxSpeed="11.180000" carFollowModel="CACC" color="255,255,255"/>

	<route id="route1_2" edges=" 1 -2"/>
	<route id="route1_3" edges=" 1 -3"/>
	<route id="route1_4" edges=" 1 -4"/>
	<route id="route2_1" edges=" 2 -1"/>
	<route id="route2_3" edges=" 2 -3"/>
	<route id="route2_4" edges=" 2 -4"/>
	<route id="route3_1" edges=" 3 -1"/>
	<route id="route3_2" edges=" 3 -2"/>
	<route id="route3_4" edges=" 3 -4"/>
	<route id="route4_1" edges=" 4 -1"/>
	<route id="route4_2" edges=" 4 -2"/>
	<route id="route4_3" edges=" 4 -3"/>

	<vehicle id="S_0" type="car8" route="route1_3" depart="0" departLane = "2" />
	<vehicle id="R_1" type="car7" route="route2_1" depart="0" departLane = "1" />
	<vehicle id="L_2" type="car9" route="route1_2" depart="1" departLane = "0" />
	<vehicle id="L_3" type="car5" route="route2_3" depart="1" departLane = "2" />
	<vehicle id="L_4" type="car6" route="route3_4" depart="1" departLane = "2" />
	<vehicle id="L_5" type="car7" route="route2_3" depart="2" departLane = "0" />
	<vehicle id="L_6" type="car7" route="route4_1" depart="2" departLane = "0" />
	<vehicle id="S_7" type="car7" route="route1_3" depart="3" departLane = "0" />
	<vehicle id="S_8" type="car6" route="route2_4" depart="3" departLane = "0" />
	<vehicle id="S_9" type="car6" route="route3_1" depart="3" departLane = "1" />
	<vehicle id="S_10" type="car7" route="route4_2" depart="3" departLane = "2" />
	<vehicle id="R_11" type="car9" route="route2_1" depart="4" departLane = "2" />
	<vehicle id="L_12" type="car8" route="route3_4" depart="4" departLane = "0" />
	<vehicle id="R_13" type="car8" route="route2_1" depart="5" departLane = "2" />
	<vehicle id="L_14" type="car9" route="route3_4" depart="5" departLane = "1" />
	<vehicle id="R_15" type="car5" route="route1_4" depart="6" departLane = "1" />
	<vehicle id="S_16" type="car7" route="route2_4" depart="6" departLane = "2" />
	<vehicle id="S_17" type="car8" route="route3_1" depart="6" departLane = "1" />
	<vehicle id="L_18" type="car7" route="route1_2" depart="7" departLane = "1" />
	<vehicle id="L_19" type="car7" route="route3_4" depart="7" departLane = "1" />
	<vehicle id="R_20" type="car8" route="route4_3" depart="7" departLane = "0" />
	<vehicle id="R_21" type="car5" route="route2_1" depart="8" departLane = "1" />
	<vehicle id="L_22" type="car8" route="route3_4" depart="8" departLane = "2" />
	<vehicle id="R_23" type="car6" route="route4_3" depart="8" departLane = "2" />
	<vehicle id="R_24" type="car7" route="route1_4" depart="9" departLane = "2" />
	<vehicle id="R_25" type="car7" route="route2_1" depart="9" departLane = "0" />
	<vehicle id="L_26" type="car9" route="route4_1" depart="9" departLane = "2" />
	<vehicle id="L_27" type="car7" route="route4_1" depart="10" departLane = "1" />
	<vehicle id="L_28" type="car7" route="route1_2" depart="11" departLane = "2" />
	<vehicle id="R_29" type="car7" route="route2_1" depart="11" departLane = "1" />
	<vehicle id="L_30" type="car7" route="route3_4" depart="11" departLane = "1" />
	<vehicle id="S_31" type="car6" route="route2_4" depart="12" departLane = "0" />
	<vehicle id="R_32" type="car9" route="route3_2" depart="12" departLane = "1" />
	<vehicle id="S_33" type="car8" route="route3_1" depart="13" departLane = "2" />
	<vehicle id="R_34" type="car5" route="route4_3" depart="13" departLane = "0" />
	<vehicle id="L_35" type="car8" route="route2_3" depart="14" departLane = "0" />
	<vehicle id="R_36" type="car5" route="route3_2" depart="14" departLane = "0" />
	<vehicle id="R_37" type="car6" route="route4_3" depart="14" departLane = "0" />
	<vehicle id="L_38" type="car7" route="route2_3" depart="15" departLane = "0" />
	<vehicle id="R_39" type="car7" route="route3_2" depart="15" departLane = "1" />
	<vehicle id="R_40" type="car9" route="route4_3" depart="15" departLane = "0" />
	<vehicle id="R_41" type="car8" route="route1_4" depart="16" departLane = "0" />
	<vehicle id="L_42" type="car5" route="route3_4" depart="16" departLane = "0" />
	<vehicle id="R_43" type="car8" route="route1_4" depart="17" departLane = "2" />
	<vehicle id="L_44" type="car9" route="route2_3" depart="17" departLane = "0" />
	<vehicle id="S_45" type="car8" route="route4_2" depart="17" departLane = "0" />
	<vehicle id="R_46" type="car6" route="route1_4" depart="18" departLane = "1" />
	<vehicle id="L_47" type="car9" route="route3_4" depart="18" departLane = "0" />
	<vehicle id="L_48" type="car6" route="route1_2" depart="19" departLane = "2" />
	<vehicle id="L_49" type="car5" route="route4_1" depart="19" departLane = "0" />
	<vehicle id="L_50" type="car9" route="route2_3" depart="20" departLane = "2" />
	<vehicle id="R_51" type="car9" route="route3_2" depart="20" departLane = "0" />
	<vehicle id="L_52" type="car6" route="route2_3" depart="21" departLane = "1" />
	<vehicle id="L_53" type="car7" route="route3_4" depart="21" departLane = "2" />
	<vehicle id="S_54" type="car8" route="route4_2" depart="21" departLane = "0" />
	<vehicle id="L_55" type="car6" route="route1_2" depart="22" departLane = "1" />
	<vehicle id="S_56" type="car6" route="route4_2" depart="22" departLane = "0" />
	<vehicle id="L_57" type="car8" route="route3_4" depart="23" departLane = "0" />
	<vehicle id="S_58" type="car8" route="route2_4" depart="24" departLane = "2" />
	<vehicle id="R_59" type="car6" route="route3_2" depart="24" departLane = "2" />
	<vehicle id="L_60" type="car9" route="route1_2" depart="25" departLane = "0" />
	<vehicle id="S_61" type="car8" route="route2_4" depart="25" departLane = "2" />
	<vehicle id="R_62" type="car6" route="route4_3" depart="25" departLane = "1" />
	<vehicle id="S_63" type="car5" route="route1_3" depart="27" departLane = "1" />
	<vehicle id="L_64" type="car9" route="route2_3" depart="27" departLane = "0" />
	<vehicle id="S_65" type="car8" route="route1_3" depart="28" departLane = "1" />
	<vehicle id="S_66" type="car6" route="route2_4" depart="28" departLane = "1" />
	<vehicle id="S_67" type="car9" route="route3_1" depart="28" departLane = "0" />
	<vehicle id="R_68" type="car7" route="route4_3" depart="28" departLane = "2" />
	<vehicle id="S_69" type="car9" route="route1_3" depart="29" departLane = "2" />
	<vehicle id="R_70" type="car5" route="route2_1" depart="29" departLane = "2" />
	<vehicle id="L_71" type="car5" route="route3_4" depart="29" departLane = "2" />
	<vehicle id="L_72" type="car7" route="route4_1" depart="29" departLane = "2" />
	<vehicle id="R_73" type="car6" route="route1_4" depart="30" departLane = "0" />
	<vehicle id="S_74" type="car6" route="route3_1" depart="30" departLane = "2" />
	<vehicle id="L_75" type="car7" route="route2_3" depart="31" departLane = "0" />
	<vehicle id="R_76" type="car5" route="route3_2" depart="31" departLane = "1" />
	<vehicle id="S_77" type="car6" route="route4_2" depart="31" departLane = "2" />
	<vehicle id="R_78" type="car6" route="route1_4" depart="32" departLane = "1" />
	<vehicle id="R_79" type="car9" route="route2_1" depart="32" departLane = "2" />
	<vehicle id="R_80" type="car8" route="route4_3" depart="32" departLane = "0" />
	<vehicle id="S_81" type="car8" route="route2_4" depart="33" departLane = "2" />
	<vehicle id="R_82" type="car6" route="route3_2" depart="33" departLane = "1" />
	<vehicle id="S_83" type="car6" route="route4_2" depart="33" departLane = "0" />
	<vehicle id="L_84" type="car8" route="route2_3" depart="34" departLane = "1" />
	<vehicle id="R_85" type="car6" route="route4_3" depart="34" departLane = "0" />
	<vehicle id="S_86" type="car9" route="route1_3" depart="35" departLane = "2" />
	<vehicle id="R_87" type="car7" route="route2_1" depart="35" departLane = "1" />
	<vehicle id="S_88" type="car6" route="route3_1" depart="35" departLane = "1" />
	<vehicle id="S_89" type="car5" route="route4_2" depart="35" departLane = "0" />
	<vehicle id="L_90" type="car5" route="route1_2" depart="36" departLane = "0" />
	<vehicle id="R_91" type="car7" route="route3_2" depart="36" departLane = "2" />
	<vehicle id="S_92" type="car8" route="route1_3" depart="37" departLane = "1" />
	<vehicle id="S_93" type="car5" route="route2_4" depart="37" departLane = "2" />
	<vehicle id="S_94" type="car7" route="route2_4" depart="38" departLane = "0" />
	<vehicle id="L_95" type="car5" route="route4_1" depart="38" departLane = "2" />
	<vehicle id="R_96" type="car9" route="route2_1" depart="39" departLane = "0" />
	<vehicle id="S_97" type="car5" route="route4_2" depart="40" departLane = "1" />
	<vehicle id="L_98" type="car9" route="route3_4" depart="41" departLane = "0" />
	<vehicle id="S_99" type="car9" route="route1_3" depart="42" departLane = "1" />
	<vehicle id="L_100" type="car6" route="route2_3" depart="42" departLane = "1" />
	<vehicle id="S_101" type="car8" route="route3_1" depart="42" departLane = "0" />
	<vehicle id="R_102" type="car5" route="route4_3" depart="42" departLane = "1" />
	<vehicle id="S_103" type="car5" route="route1_3" depart="43" departLane = "0" />
	<vehicle id="R_104" type="car6" route="route2_1" depart="43" departLane = "2" />
	<vehicle id="S_105" type="car6" route="route3_1" depart="43" departLane = "1" />
	<vehicle id="L_106" type="car7" route="route4_1" depart="43" departLane = "1" />
	<vehicle id="R_107" type="car8" route="route2_1" depart="44" departLane = "2" />
	<vehicle id="R_108" type="car7" route="route3_2" depart="44" departLane = "1" />
	<vehicle id="R_109" type="car7" route="route4_3" depart="44" departLane = "1" />
	<vehicle id="L_110" type="car5" route="route3_4" depart="45" departLane = "1" />
	<vehicle id="L_111" type="car9" route="route4_1" depart="45" departLane = "1" />
	<vehicle id="R_112" type="car9" route="route1_4" depart="46" departLane = "2" />
	<vehicle id="R_113" type="car9" route="route2_1" depart="46" departLane = "2" />
	<vehicle id="L_114" type="car8" route="route3_4" depart="46" departLane = "2" />
	<vehicle id="R_115" type="car9" route="route4_3" depart="46" departLane = "2" />
	<vehicle id="R_116" type="car6" route="route2_1" depart="47" departLane = "0" />
	<vehicle id="R_117" type="car8" route="route3_2" depart="47" departLane = "1" />
	<vehicle id="R_118" type="car8" route="route4_3" depart="47" departLane = "2" />
	<vehicle id="L_119" type="car5" route="route1_2" depart="48" departLane = "1" />
	<vehicle id="L_120" type="car9" route="route3_4" depart="48" departLane = "2" />
	<vehicle id="L_121" type="car9" route="route1_2" depart="49" departLane = "2" />
	<vehicle id="L_122" type="car9" route="route2_3" depart="49" departLane = "2" />
	<vehicle id="L_123" type="car9" route="route1_2" depart="50" departLane = "2" />
	<vehicle id="R_124" type="car7" route="route2_1" depart="50" departLane = "2" />
	<vehicle id="S_125" type="car5" route="route3_1" depart="50" departLane = "0" />
	<vehicle id="S_126" type="car7" route="route2_4" depart="51" departLane = "1" />
	<vehicle id="R_127" type="car6" route="route3_2" depart="51" departLane = "0" />
	<vehicle id="L_128" type="car7" route="route1_2" depart="52" departLane = "0" />
	<vehicle id="L_129" type="car8" route="route2_3" depart="52" departLane = "1" />
	<vehicle id="S_130" type="car7" route="route4_2" depart="52" departLane = "0" />
	<vehicle id="R_131" type="car6" route="route1_4" depart="53" departLane = "1" />
	<vehicle id="S_132" type="car9" route="route2_4" depart="54" departLane = "1" />
	<vehicle id="L_133" type="car6" route="route4_1" depart="54" departLane = "1" />
	<vehicle id="R_134" type="car5" route="route1_4" depart="55" departLane = "2" />
	<vehicle id="L_135" type="car8" route="route3_4" depart="55" departLane = "2" />
	<vehicle id="R_136" type="car7" route="route1_4" depart="56" departLane = "1" />
	<vehicle id="S_137" type="car6" route="route2_4" depart="56" departLane = "1" />
	<vehicle id="R_138" type="car7" route="route3_2" depart="56" departLane = "0" />
	<vehicle id="R_139" type="car6" route="route4_3" depart="56" departLane = "0" />
	<vehicle id="S_140" type="car6" route="route3_1" depart="57" departLane = "1" />
	<vehicle id="L_141" type="car6" route="route4_1" depart="57" departLane = "0" />
	<vehicle id="L_142" type="car9" route="route1_2" depart="58" departLane = "2" />
	<vehicle id="L_143" type="car7" route="route2_3" depart="58" departLane = "2" />
	<vehicle id="L_144" type="car9" route="route4_1" depart="58" departLane = "2" />
	<vehicle id="L_145" type="car8" route="route1_2" depart="59" departLane = "0" />
	<vehicle id="L_146" type="car5" route="route2_3" depart="59" departLane = "1" />
	<vehicle id="R_147" type="car7" route="route3_2" depart="59" departLane = "1" />
	<vehicle id="S_148" type="car9" route="route1_3" depart="60" departLane = "2" />
	<vehicle id="L_149" type="car8" route="route3_4" depart="60" departLane = "2" />
	<vehicle id="L_150" type="car8" route="route2_3" depart="61" departLane = "1" />
	<vehicle id="R_151" type="car8" route="route1_4" depart="63" departLane = "0" />
	<vehicle id="S_152" type="car9" route="route3_1" depart="63" departLane = "0" />
	<vehicle id="L_153" type="car5" route="route4_1" depart="63" departLane = "1" />
	<vehicle id="L_154" type="car7" route="route1_2" depart="64" departLane = "2" />
	<vehicle id="R_155" type="car5" route="route2_1" depart="64" departLane = "1" />
	<vehicle id="L_156" type="car8" route="route3_4" depart="64" departLane = "2" />
	<vehicle id="S_157" type="car8" route="route4_2" depart="64" departLane = "2" />
	<vehicle id="R_158" type="car9" route="route1_4" depart="65" departLane = "0" />
	<vehicle id="R_159" type="car9" route="route2_1" depart="65" departLane = "0" />
	<vehicle id="L_160" type="car7" route="route3_4" depart="65" departLane = "1" />
	<vehicle id="S_161" type="car8" route="route1_3" depart="66" departLane = "1" />
	<vehicle id="S_162" type="car6" route="route3_1" depart="66" departLane = "1" />
	<vehicle id="R_163" type="car8" route="route4_3" depart="66" departLane = "0" />
	<vehicle id="L_164" type="car9" route="route2_3" depart="67" departLane = "0" />
	<vehicle id="L_165" type="car8" route="route1_2" depart="68" departLane = "2" />
	<vehicle id="L_166" type="car8" route="route2_3" depart="68" departLane = "1" />
	<vehicle id="S_167" type="car5" route="route4_2" depart="68" departLane = "1" />
	<vehicle id="S_168" type="car8" route="route2_4" depart="69" departLane = "2" />
	<vehicle id="S_169" type="car5" route="route4_2" depart="69" departLane = "1" />
	<vehicle id="L_170" type="car6" route="route1_2" depart="70" departLane = "2" />
	<vehicle id="R_171" type="car8" route="route3_2" depart="70" departLane = "2" />
	<vehicle id="S_172" type="car6" route="route4_2" depart="70" departLane = "0" />
	<vehicle id="S_173" type="car5" route="route1_3" depart="71" departLane = "0" />
	<vehicle id="S_174" type="car9" route="route2_4" depart="71" departLane = "1" />
	<vehicle id="R_175" type="car8" route="route3_2" depart="71" departLane = "0" />
	<vehicle id="R_176" type="car5" route="route3_2" depart="72" departLane = "2" />
	<vehicle id="L_177" type="car7" route="route1_2" depart="73" departLane = "1" />
	<vehicle id="L_178" type="car6" route="route2_3" depart="73" departLane = "0" />
	<vehicle id="S_179" type="car6" route="route4_2" depart="73" departLane = "1" />
	<vehicle id="S_180" type="car9" route="route2_4" depart="74" departLane = "1" />
	<vehicle id="L_181" type="car9" route="route4_1" depart="74" departLane = "2" />
	<vehicle id="R_182" type="car7" route="route1_4" depart="75" departLane = "1" />
	<vehicle id="L_183" type="car8" route="route3_4" depart="75" departLane = "2" />
	<vehicle id="L_184" type="car5" route="route4_1" depart="75" departLane = "2" />
	<vehicle id="R_185" type="car5" route="route1_4" depart="76" departLane = "1" />
	<vehicle id="L_186" type="car7" route="route2_3" depart="76" departLane = "0" />
	<vehicle id="S_187" type="car9" route="route1_3" depart="77" departLane = "0" />
	<vehicle id="S_188" type="car5" route="route2_4" depart="77" departLane = "0" />
	<vehicle id="R_189" type="car8" route="route3_2" depart="77" departLane = "0" />
	<vehicle id="L_190" type="car9" route="route4_1" depart="78" departLane = "1" />
	<vehicle id="L_191" type="car9" route="route2_3" depart="79" departLane = "0" />
	<vehicle id="R_192" type="car8" route="route3_2" depart="79" departLane = "1" />
	<vehicle id="R_193" type="car5" route="route4_3" depart="79" departLane = "1" />
	<vehicle id="R_194" type="car5" route="route1_4" depart="80" departLane = "1" />
	<vehicle id="R_195" type="car8" route="route3_2" depart="80" departLane = "1" />
	<vehicle id="L_196" type="car5" route="route3_4" depart="81" departLane = "2" />
	<vehicle id="L_197" type="car9" route="route3_4" depart="82" departLane = "0" />
	<vehicle id="S_198" type="car9" route="route4_2" depart="82" departLane = "1" />
	<vehicle id="R_199" type="car7" route="route1_4" depart="83" departLane = "1" />
	<vehicle id="R_200" type="car8" route="route2_1" depart="83" departLane = "1" />
	<vehicle id="S_201" type="car5" route="route4_2" depart="83" departLane = "1" />
	<vehicle id="R_202" type="car6" route="route2_1" depart="84" departLane = "0" />
	<vehicle id="S_203" type="car8" route="route4_2" depart="84" departLane = "0" />
	<vehicle id="S_204" type="car6" route="route3_1" depart="85" departLane = "1" />
	<vehicle id="S_205" type="car6" route="route4_2" depart="85" departLane = "0" />
	<vehicle id="S_206" type="car8" route="route3_1" depart="86" departLane = "0" />
	<vehicle id="S_207" type="car8" route="route4_2" depart="86" departLane = "2" />
	<vehicle id="R_208" type="car9" route="route3_2" depart="87" departLane = "2" />
	<vehicle id="R_209" type="car6" route="route4_3" depart="87" departLane = "0" />
	<vehicle id="S_210" type="car6" route="route1_3" depart="88" departLane = "0" />
	<vehicle id="R_211" type="car9" route="route2_1" depart="88" departLane = "0" />
	<vehicle id="L_212" type="car6" route="route4_1" depart="88" departLane = "0" />
	<vehicle id="L_213" type="car7" route="route1_2" depart="89" departLane = "2" />
	<vehicle id="L_214" type="car9" route="route2_3" depart="89" departLane = "0" />
	<vehicle id="S_215" type="car5" route="route3_1" depart="89" departLane = "0" />
	<vehicle id="L_216" type="car9" route="route1_2" depart="90" departLane = "2" />
	<vehicle id="R_217" type="car7" route="route3_2" depart="91" departLane = "1" />
	<vehicle id="R_218" type="car8" route="route4_3" depart="92" departLane = "2" />
	<vehicle id="L_219" type="car9" route="route1_2" depart="93" departLane = "1" />
	<vehicle id="L_220" type="car5" route="route2_3" depart="93" departLane = "0" />
	<vehicle id="L_221" type="car5" route="route4_1" depart="93" departLane = "2" />
	<vehicle id="L_222" type="car5" route="route1_2" depart="94" departLane = "2" />
	<vehicle id="R_223" type="car6" route="route2_1" depart="94" departLane = "1" />
	<vehicle id="S_224" type="car8" route="route3_1" depart="94" departLane = "0" />
	<vehicle id="R_225" type="car5" route="route4_3" depart="94" departLane = "0" />
	<vehicle id="S_226" type="car5" route="route3_1" depart="95" departLane = "2" />
	<vehicle id="R_227" type="car8" route="route4_3" depart="95" departLane = "2" />
	<vehicle id="R_228" type="car7" route="route1_4" depart="96" departLane = "2" />
	<vehicle id="R_229" type="car7" route="route4_3" depart="96" departLane = "2" />
	<vehicle id="S_230" type="car8" route="route2_4" depart="98" departLane = "0" />
	<vehicle id="S_231" type="car7" route="route4_2" depart="98" departLane = "1" />
	<vehicle id="R_232" type="car9" route="route3_2" depart="99" departLane = "0" />
	<vehicle id="L_233" type="car6" route="route4_1" depart="99" departLane = "0" />
	<vehicle id="S_234" type="car6" route="route2_4" depart="100" departLane = "0" />
	<vehicle id="S_235" type="car7" route="route2_4" depart="101" departLane = "1" />
	<vehicle id="L_236" type="car9" route="route3_4" depart="101" departLane = "1" />
	<vehicle id="S_237" type="car6" route="route1_3" depart="102" departLane = "1" />
	<vehicle id="S_238" type="car7" route="route2_4" depart="102" departLane = "1" />
	<vehicle id="R_239" type="car5" route="route3_2" depart="102" departLane = "2" />
	<vehicle id="L_240" type="car7" route="route3_4" depart="103" departLane = "1" />
	<vehicle id="R_241" type="car8" route="route2_1" depart="105" departLane = "1" />
	<vehicle id="S_242" type="car7" route="route3_1" depart="105" departLane = "2" />
	<vehicle id="L_243" type="car5" route="route4_1" depart="105" departLane = "1" />
	<vehicle id="R_244" type="car5" route="route1_4" depart="106" departLane = "1" />
	<vehicle id="S_245" type="car9" route="route2_4" depart="106" departLane = "0" />
	<vehicle id="L_246" type="car9" route="route3_4" depart="106" departLane = "0" />
	<vehicle id="S_247" type="car8" route="route4_2" depart="106" departLane = "1" />
	<vehicle id="R_248" type="car7" route="route2_1" depart="107" departLane = "2" />
	<vehicle id="R_249" type="car8" route="route4_3" depart="107" departLane = "2" />
	<vehicle id="L_250" type="car9" route="route1_2" depart="108" departLane = "0" />
	<vehicle id="R_251" type="car6" route="route2_1" depart="108" departLane = "0" />
	<vehicle id="S_252" type="car6" route="route3_1" depart="108" departLane = "2" />
	<vehicle id="R_253" type="car9" route="route2_1" depart="109" departLane = "1" />
	<vehicle id="S_254" type="car6" route="route3_1" depart="109" departLane = "1" />
	<vehicle id="R_255" type="car7" route="route2_1" depart="110" departLane = "1" />
	<vehicle id="S_256" type="car6" route="route4_2" depart="110" departLane = "0" />
	<vehicle id="S_257" type="car9" route="route1_3" depart="111" departLane = "2" />
	<vehicle id="L_258" type="car8" route="route4_1" depart="111" departLane = "1" />
	<vehicle id="S_259" type="car9" route="route1_3" depart="112" departLane = "1" />
	<vehicle id="R_260" type="car5" route="route2_1" depart="112" departLane = "2" />
	<vehicle id="R_261" type="car6" route="route3_2" depart="112" departLane = "2" />
	<vehicle id="R_262" type="car9" route="route4_3" depart="112" departLane = "1" />
	<vehicle id="R_263" type="car9" route="route2_1" depart="113" departLane = "1" />
	<vehicle id="R_264" type="car8" route="route3_2" depart="113" departLane = "0" />
	<vehicle id="L_265" type="car5" route="route4_1" depart="113" departLane = "1" />
	<vehicle id="R_266" type="car7" route="route1_4" depart="115" departLane = "1" />
	<vehicle id="S_267" type="car8" route="route4_2" depart="115" departLane = "0" />
	<vehicle id="S_268" type="car5" route="route1_3" depart="116" departLane = "0" />
	<vehicle id="S_269" type="car9" route="route2_4" depart="116" departLane = "1" />
	<vehicle id="S_270" type="car5" route="route3_1" depart="116" departLane = "1" />
	<vehicle id="L_271" type="car8" route="route4_1" depart="116" departLane = "0" />
	<vehicle id="S_272" type="car6" route="route1_3" depart="117" departLane = "0" />
	<vehicle id="S_273" type="car8" route="route2_4" depart="117" departLane = "1" />
	<vehicle id="R_274" type="car8" route="route3_2" depart="117" departLane = "2" />
	<vehicle id="R_275" type="car6" route="route4_3" depart="117" departLane = "0" />
	<vehicle id="L_276" type="car6" route="route1_2" depart="119" departLane = "1" />
	<vehicle id="S_277" type="car6" route="route2_4" depart="119" departLane = "0" />
	<vehicle id="S_278" type="car8" route="route3_1" depart="119" departLane = "1" />
	<vehicle id="R_279" type="car6" route="route4_3" depart="119" departLane = "2" />
	<vehicle id="R_280" type="car9" route="route1_4" depart="120" departLane = "1" />
	<vehicle id="R_281" type="car5" route="route2_1" depart="120" departLane = "0" />
	<vehicle id="S_282" type="car5" route="route3_1" depart="120" departLane = "1" />
	<vehicle id="L_283" type="car9" route="route4_1" depart="120" departLane = "2" />
	<vehicle id="L_284" type="car7" route="route1_2" depart="121" departLane = "1" />
	<vehicle id="R_285" type="car5" route="route2_1" depart="121" departLane = "0" />
	<vehicle id="S_286" type="car8" route="route3_1" depart="121" departLane = "2" />
	<vehicle id="R_287" type="car8" route="route4_3" depart="121" departLane = "0" />
	<vehicle id="S_288" type="car6" route="route1_3" depart="122" departLane = "0" />
	<vehicle id="R_289" type="car5" route="route2_1" depart="122" departLane = "0" />
	<vehicle id="S_290" type="car8" route="route3_1" depart="122" departLane = "2" />
	<vehicle id="R_291" type="car6" route="route4_3" depart="122" departLane = "2" />
	<vehicle id="S_292" type="car9" route="route1_3" depart="123" departLane = "0" />
	<vehicle id="S_293" type="car8" route="route2_4" depart="123" departLane = "2" />
	<vehicle id="S_294" type="car8" route="route2_4" depart="124" departLane = "2" />
	<vehicle id="L_295" type="car7" route="route3_4" depart="124" departLane = "1" />
	<vehicle id="S_296" type="car8" route="route4_2" depart="124" departLane = "2" />
	<vehicle id="L_297" type="car7" route="route1_2" depart="125" departLane = "0" />
	<vehicle id="R_298" type="car7" route="route2_1" depart="125" departLane = "0" />
	<vehicle id="L_299" type="car6" route="route3_4" depart="125" departLane = "0" />
	<vehicle id="R_300" type="car7" route="route4_3" depart="125" departLane = "1" />
	<vehicle id="R_301" type="car8" route="route1_4" depart="126" departLane = "1" />
	<vehicle id="R_302" type="car9" route="route2_1" depart="126" departLane = "1" />
	<vehicle id="S_303" type="car8" route="route1_3" depart="127" departLane = "0" />
	<vehicle id="L_304" type="car5" route="route2_3" depart="127" departLane = "2" />
	<vehicle id="S_305" type="car9" route="route4_2" depart="127" departLane = "2" />
	<vehicle id="S_306" type="car5" route="route1_3" depart="128" departLane = "2" />
	<vehicle id="L_307" type="car5" route="route3_4" depart="128" departLane = "1" />
	<vehicle id="S_308" type="car8" route="route1_3" depart="129" departLane = "2" />
	<vehicle id="L_309" type="car9" route="route3_4" depart="129" departLane = "2" />
	<vehicle id="R_310" type="car9" route="route1_4" depart="130" departLane = "1" />
	<vehicle id="R_311" type="car7" route="route2_1" depart="130" departLane = "2" />
	<vehicle id="L_312" type="car7" route="route3_4" depart="130" departLane = "2" />
	<vehicle id="L_313" type="car5" route="route1_2" depart="131" departLane = "1" />
	<vehicle id="L_314" type="car5" route="route3_4" depart="131" departLane = "0" />
	<vehicle id="S_315" type="car6" route="route4_2" depart="131" departLane = "1" />
	<vehicle id="R_316" type="car9" route="route1_4" depart="132" departLane = "2" />
	<vehicle id="L_317" type="car6" route="route1_2" depart="133" departLane = "2" />
	<vehicle id="L_318" type="car5" route="route2_3" depart="133" departLane = "1" />
	<vehicle id="R_319" type="car6" route="route1_4" depart="134" departLane = "2" />
	<vehicle id="S_320" type="car6" route="route1_3" depart="135" departLane = "1" />
	<vehicle id="S_321" type="car7" route="route2_4" depart="135" departLane = "2" />
	<vehicle id="L_322" type="car8" route="route1_2" depart="136" departLane = "0" />
	<vehicle id="L_323" type="car7" route="route3_4" depart="136" departLane = "1" />
	<vehicle id="S_324" type="car9" route="route4_2" depart="136" departLane = "2" />
	<vehicle id="S_325" type="car6" route="route1_3" depart="137" departLane = "2" />
	<vehicle id="L_326" type="car5" route="route3_4" depart="137" departLane = "2" />
	<vehicle id="S_327" type="car8" route="route4_2" depart="137" departLane = "2" />
	<vehicle id="S_328" type="car7" route="route2_4" depart="138" departLane = "1" />
	<vehicle id="S_329" type="car7" route="route1_3" depart="139" departLane = "1" />
	<vehicle id="L_330" type="car9" route="route2_3" depart="139" departLane = "2" />
	<vehicle id="R_331" type="car5" route="route3_2" depart="139" departLane = "1" />
	<vehicle id="L_332" type="car5" route="route4_1" depart="139" departLane = "0" />
	<vehicle id="S_333" type="car9" route="route4_2" depart="140" departLane = "0" />
	<vehicle id="R_334" type="car8" route="route3_2" depart="141" departLane = "1" />
	<vehicle id="L_335" type="car5" route="route2_3" depart="142" departLane = "1" />
	<vehicle id="L_336" type="car8" route="route3_4" depart="143" departLane = "0" />
	<vehicle id="R_337" type="car7" route="route2_1" depart="144" departLane = "1" />
	<vehicle id="R_338" type="car9" route="route3_2" depart="144" departLane = "2" />
	<vehicle id="S_339" type="car8" route="route4_2" depart="145" departLane = "0" />
	<vehicle id="R_340" type="car6" route="route1_4" depart="146" departLane = "1" />
	<vehicle id="R_341" type="car7" route="route2_1" depart="146" departLane = "1" />
	<vehicle id="R_342" type="car9" route="route4_3" depart="146" departLane = "0" />
	<vehicle id="R_343" type="car7" route="route1_4" depart="147" departLane = "0" />
	<vehicle id="L_344" type="car8" route="route2_3" depart="147" departLane = "2" />
	<vehicle id="S_345" type="car7" route="route3_1" depart="147" departLane = "1" />
	<vehicle id="R_346" type="car5" route="route4_3" depart="147" departLane = "1" />
	<vehicle id="S_347" type="car6" route="route1_3" depart="148" departLane = "1" />
	<vehicle id="R_348" type="car7" route="route3_2" depart="148" departLane = "0" />
	<vehicle id="L_349" type="car6" route="route4_1" depart="149" departLane = "0" />
	<vehicle id="R_350" type="car7" route="route1_4" depart="150" departLane = "0" />