<routes>

	<vType id="car5" accel="100.0" decel="100.0" sigma="0.0" length="5" minGap="1.0" maxSpeed="11.180000" carFollowModel="CACC" color="255,255,255"/>
	<vType id="car6" accel="100.0" decel="100.0" sigma="0.0" length="6" minGap="1.0" maxSpeed="11.180000" carFollowModel="CACC" color="255,255,255"/>
	<vType id="car7" accel="100.0" decel="100.0" sigma="0.0" length="7" minGap="1.0" maxSpeed="11.180000" carFollowModel="CACC" color="255,255,255"/>
	<vType id="car8" accel="100.0" decel="100.0" sigma="0.0" length="8" minGap="1.0" maxSpeed="11.180000" carFollowModel="CACC" color="255,255,255"/>
	<vType id="car9" accel="100.0" decel="100.0" sigma="0.0" length="9" minGap="1.0" maxSpeed="11.180000" carFollowModel="CACC" color="255,255,255"/>

	<route id="route1_2" edges=" 1 -2"/>
	<route id="route1_3" edges=" 1 -3"/>
	<route id="route1_4" edges=" 1 -4"/>
	<route id="route2_1" edges=" 2 -1"/>
	<route id="route2_3" edges=" 2 -3"/>
	<route id="route2_4" edges=" 2 -4"/>
	<route id="route3_1" edges=" 3 -1"/>
	<route id="route3_2" edges=" 3 -2"/>
	<route id="route3_4" edges=" 3 -4"/>
	<route id="route4_1" edges=" 4 -1"/>
	<route id="route4_2" edges=" 4 -2"/>
	<route id="route4_3" edges=" 4 -3"/>

	<vehicle id="S_0" type="car8" route="route4_2" depart="8" departLane = "1" />
	<vehicle id="R_1" type="car9" route="route1_4" depart="11" departLane = "0" />
	<vehicle id="S_2" type="car7" route="route2_4" depart="12" departLane = "1" />
	<vehicle id="S_3" type="car8" route="route3_1" depart="15" departLane = "1" />
	<vehicle id="S_4" type="car7" route="route4_2" depart="16" departLane = "1" />
	<vehicle id="S_5" type="car6" route="route2_4" depart="17" departLane = "1" />
	<vehicle id="S_6" type="car9" route="route3_1" depart="22" departLane = "1" />
	<vehicle id="R_7" type="car7" route="route4_3" depart="23" departLane = "0" />
	<vehicle id="R_8" type="car9" route="route1_4" depart="26" departLane = "0" />
	<vehicle id="S_9" type="car5" route="route1_3" depart="27" departLane = "1" />
	<vehicle id="R_10" type="car5" route="route4_3" depart="28" departLane = "0" />
	<vehicle id="S_11" type="car5" route="route2_4" depart="30" departLane = "1" />
	<vehicle id="S_12" type="car5" route="route2_4" depart="31" departLane = "1" />
	<vehicle id="R_13" type="car5" route="route3_2" depart="32" departLane = "0" />
	<vehicle id="L_14" type="car8" route="route1_2" depart="37" departLane = "2" />
	<vehicle id="L_15" type="car5" route="route3_4" depart="39" departLane = "2" />
	<vehicle id="L_16" type="car9" route="route1_2" depart="43" departLane = "2" />
	<vehicle id="R_17" type="car8" route="route2_1" depart="46" departLane = "0" />
	<vehicle id="R_18" type="car6" route="route3_2" depart="46" departLane = "0" />
	<vehicle id="R_19" type="car5" route="route4_3" depart="47" departLane = "0" />
	<vehicle id="R_20" type="car6" route="route2_1" depart="50" departLane = "0" />
	<vehicle id="R_21" type="car9" route="route1_4" depart="52" departLane = "0" />
	<vehicle id="S_22" type="car8" route="route4_2" depart="54" departLane = "1" />
	<vehicle id="R_23" type="car6" route="route2_1" depart="57" departLane = "0" />
	<vehicle id="L_24" type="car9" route="route4_1" depart="58" departLane = "2" />
	<vehicle id="S_25" type="car6" route="route1_3" depart="61" departLane = "1" />
	<vehicle id="L_26" type="car9" route="route1_2" depart="62" departLane = "2" />
	<vehicle id="R_27" type="car7" route="route2_1" depart="62" departLane = "0" />
	<vehicle id="S_28" type="car6" route="route3_1" depart="64" departLane = "1" />
	<vehicle id="S_29" type="car7" route="route2_4" depart="68" departLane = "1" />
	<vehicle id="L_30" type="car5" route="route2_3" depart="70" departLane = "2" />
	<vehicle id="R_31" type="car9" route="route2_1" depart="71" departLane = "0" />
	<vehicle id="S_32" type="car5" route="route3_1" depart="74" departLane = "1" />
	<vehicle id="S_33" type="car6" route="route2_4" depart="76" departLane = "1" />
	<vehicle id="L_34" type="car7" route="route3_4" depart="81" departLane = "2" />
	<vehicle id="S_35" type="car6" route="route1_3" depart="82" departLane = "1" />
	<vehicle id="S_36" type="car6" route="route4_2" depart="84" departLane = "1" />
	<vehicle id="S_37" type="car5" route="route1_3" depart="85" departLane = "1" />
	<vehicle id="R_38" type="car5" route="route3_2" depart="87" departLane = "0" />
	<vehicle id="R_39" type="car6" route="route1_4" depart="92" departLane = "0" />
	<vehicle id="S_40" type="car6" route="route1_3" depart="97" departLane = "1" />
	<vehicle id="S_41" type="car8" route="route4_2" depart="97" departLane = "1" />
	<vehicle id="R_42" type="car8" route="route2_1" depart="98" departLane = "0" />
	<vehicle id="L_43" type="car9" route="route4_1" depart="98" departLane = "2" />
	<vehicle id="R_44" type="car5" route="route1_4" depart="107" departLane = "0" />
	<vehicle id="R_45" type="car7" route="route3_2" depart="107" departLane = "0" />
	<vehicle id="L_46" type="car9" route="route1_2" depart="109" departLane = "2" />
	<vehicle id="L_47" type="car6" route="route3_4" depart="111" departLane = "2" />
	<vehicle id="L_48" type="car8" route="route1_2" depart="112" departLane = "2" />
	<vehicle id="S_49" type="car5" route="route2_4" depart="116" departLane = "1" />
	<vehicle id="S_50" type="car6" route="route1_3" depart="119" departLane = "1" />
	<vehicle id="S_51" type="car6" route="route1_3" depart="124" departLane = "1" />
	<vehicle id="R_52" type="car7" route="route1_4" depart="128" departLane = "0" />
	<vehicle id="L_53" type="car6" route="route1_2" depart="129" departLane = "2" />
	<vehicle id="L_54" type="car8" route="route3_4" depart="133" departLane = "2" />
	<vehicle id="L_55" type="car7" route="route1_2" depart="134" departLane = "2" />
	<vehicle id="S_56" type="car8" route="route4_2" depart="135" departLane = "1" />
	<vehicle id="L_57" type="car7" route="route4_1" depart="137" departLane = "2" />
	<vehicle id="S_58" type="car5" route="route2_4" depart="140" departLane = "1" />
	<vehicle id="L_59" type="car7" route="route1_2" depart="149" departLane = "2" />
	<vehicle id="L_60" type="car8" route="route4_1" depart="151" departLane = "2" />
	<vehicle id="L_61" type="car5" route="route1_2" depart="152" departLane = "2" />
	<vehicle id="S_62" type="car7" route="route3_1" depart="152" departLane = "1" />
	<vehicle id="L_63" type="car8" route="route3_4" depart="159" departLane = "2" />
	<vehicle id="L_64" type="car5" route="route4_1" depart="159" departLane = "2" />
	<vehicle id="S_65" type="car9" route="route3_1" depart="161" departLane = "1" />
	<vehicle id="R_66" type="car9" route="route4_3" depart="162" departLane = "0" />
	<vehicle id="L_67" type="car5" route="route2_3" depart="165" departLane = "2" />
	<vehicle id="R_68" type="car5" route="route4_3" depart="165" departLane = "0" />
	<vehicle id="L_69" type="car5" route="route3_4" depart="169" departLane = "2" />
	<vehicle id="R_70" type="car9" route="route1_4" depart="170" departLane = "0" />
	<vehicle id="S_71" type="car8" route="route2_4" depart="173" departLane = "1" />
	<vehicle id="R_72" type="car8" route="route4_3" depart="173" departLane = "0" />
	<vehicle id="S_73" type="car5" route="route4_2" depart="174" departLane = "1" />
	<vehicle id="R_74" type="car9" route="route3_2" depart="181" departLane = "0" />
	<vehicle id="L_75" type="car8" route="route1_2" depart="182" departLane = "2" />
	<vehicle id="L_76" type="car6" route="route2_3" depart="189" departLane = "2" />
	<vehicle id="L_77" type="car9" route="route2_3" depart="194" departLane = "2" />
	<vehicle id="L_78" type="car6" route="route1_2" depart="195" departLane = "2" />
	<vehicle id="L_79" type="car6" route="route1_2" depart="197" departLane = "2" />
	<vehicle id="L_80" type="car5" route="route3_4" depart="198" departLane = "2" />
	<vehicle id="S_81" type="car9" route="route1_3" depart="201" departLane = "1" />
	<vehicle id="L_82" type="car5" route="route1_2" depart="202" departLane = "2" />
	<vehicle id="R_83" type="car5" route="route2_1" depart="202" departLane = "0" />
	<vehicle id="S_84" type="car7" route="route3_1" depart="202" departLane = "1" />
	<vehicle id="L_85" type="car5" route="route4_1" depart="202" departLane = "2" />
	<vehicle id="S_86" type="car7" route="route4_2" depart="205" departLane = "1" />
	<vehicle id="L_87" type="car6" route="route3_4" depart="209" departLane = "2" />
	<vehicle id="S_88" type="car6" route="route3_1" depart="210" departLane = "1" />
	<vehicle id="R_89" type="car7" route="route2_1" depart="213" departLane = "0" />
	<vehicle id="L_90" type="car5" route="route1_2" depart="214" departLane = "2" />
	<vehicle id="R_91" type="car9" route="route4_3" depart="216" departLane = "0" />
	<vehicle id="L_92" type="car5" route="route4_1" depart="219" departLane = "2" />
	<vehicle id="R_93" type="car6" route="route2_1" depart="226" departLane = "0" />
	<vehicle id="L_94" type="car6" route="route2_3" depart="228" departLane = "2" />
	<vehicle id="L_95" type="car8" route="route2_3" depart="229" departLane = "2" />
	<vehicle id="S_96" type="car8" route="route4_2" depart="230" departLane = "1" />
	<vehicle id="L_97" type="car6" route="route4_1" depart="231" departLane = "2" />
	<vehicle id="R_98" type="car7" route="route4_3" depart="233" departLane = "0" />
	<vehicle id="L_99" type="car9" route="route1_2" depart="239" departLane = "2" />
	<vehicle id="R_100" type="car6" route="route3_2" depart="240" departLane = "0" />
	<vehicle id="L_101" type="car8" route="route2_3" depart="244" departLane = "2" />
	<vehicle id="R_102" type="car5" route="route1_4" depart="246" departLane = "0" />
	<vehicle id="R_103" type="car7" route="route4_3" depart="250" departLane = "0" />
	<vehicle id="L_104" type="car5" route="route2_3" depart="251" departLane = "2" />
	<vehicle id="S_105" type="car8" route="route4_2" depart="252" departLane = "1" />
	<vehicle id="S_106" type="car6" route="route1_3" depart="255" departLane = "1" />
	<vehicle id="S_107" type="car6" route="route4_2" depart="258" departLane = "1" />
	<vehicle id="L_108" type="car9" route="route4_1" depart="261" departLane = "2" />
	<vehicle id="R_109" type="car5" route="route3_2" depart="265" departLane = "0" />
	<vehicle id="S_110" type="car8" route="route3_1" depart="266" departLane = "1" />
	<vehicle id="R_111" type="car5" route="route1_4" depart="270" departLane = "0" />
	<vehicle id="R_112" type="car5" route="route2_1" depart="275" departLane = "0" />
	<vehicle id="L_113" type="car8" route="route4_1" depart="276" departLane = "2" />
	<vehicle id="R_114" type="car9" route="route2_1" depart="279" departLane = "0" />
	<vehicle id="S_115" type="car5" route="route3_1" depart="279" departLane = "1" />
	<vehicle id="R_116" type="car9" route="route3_2" depart="280" departLane = "0" />
	<vehicle id="S_117" type="car8" route="route2_4" depart="281" departLane = "1" />
	<vehicle id="R_118" type="car8" route="route1_4" depart="284" departLane = "0" />
	<vehicle id="R_119" type="car6" route="route2_1" depart="284" departLane = "0" />
	<vehicle id="R_120" type="car7" route="route3_2" depart="288" departLane = "0" />
	<vehicle id="S_121" type="car5" route="route1_3" depart="289" departLane = "1" />
	<vehicle id="R_122" type="car8" route="route2_1" depart="293" departLane = "0" />
	<vehicle id="S_123" type="car7" route="route1_3" depart="295" departLane = "1" />
	<vehicle id="S_124" type="car9" route="route1_3" depart="296" departLane = "1" />
	<vehicle id="S_125" type="car7" route="route4_2" depart="303" departLane = "1" />
	<vehicle id="L_126" type="car5" route="route4_1" depart="307" departLane = "2" />
	<vehicle id="L_127" type="car9" route="route2_3" depart="317" departLane = "2" />
	<vehicle id="S_128" type="car5" route="route3_1" depart="320" departLane = "1" />
	<vehicle id="L_129" type="car7" route="route4_1" depart="320" departLane = "2" />
	<vehicle id="S_130" type="car9" route="route4_2" depart="323" departLane = "1" />
	<vehicle id="S_131" type="car6" route="route3_1" depart="326" departLane = "1" />
	<vehicle id="L_132" type="car8" route="route3_4" depart="327" departLane = "2" />
	<vehicle id="L_133" type="car9" route="route1_2" depart="328" departLane = "2" />
	<vehicle id="S_134" type="car9" route="route1_3" depart="329" departLane = "1" />
	<vehicle id="S_135" type="car5" route="route1_3" depart="332" departLane = "1" />
	<vehicle id="S_136" type="car8" route="route1_3" depart="333" departLane = "1" />
	<vehicle id="S_137" type="car8" route="route3_1" depart="335" departLane = "1" />
	<vehicle id="S_138" type="car5" route="route4_2" depart="337" departLane = "1" />
	<vehicle id="S_139" type="car7" route="route1_3" depart="339" departLane = "1" />
	<vehicle id="R_140" type="car9" route="route1_4" depart="340" departLane = "0" />
	<vehicle id="S_141" type="car8" route="route4_2" depart="351" departLane = "1" />
	<vehicle id="S_142" type="car5" route="route3_1" depart="353" departLane = "1" />
	<vehicle id="R_143" type="car5" route="route1_4" depart="355" departLane = "0" />
	<vehicle id="R_144" type="car9" route="route2_1" depart="355" departLane = "0" />
	<vehicle id="R_145" type="car5" route="route3_2" depart="355" departLane = "0" />
	<vehicle id="L_146" type="car8" route="route3_4" depart="356" departLane = "2" />
	<vehicle id="R_147" type="car9" route="route1_4" depart="357" departLane = "0" />
	<vehicle id="R_148" type="car6" route="route3_2" depart="357" departLane = "0" />
	<vehicle id="R_149" type="car6" route="route4_3" depart="358" departLane = "0" />
	<vehicle id="L_150" type="car5" route="route3_4" depart="361" departLane = "2" />
	<vehicle id="R_151" type="car5" route="route3_2" depart="368" departLane = "0" />
	<vehicle id="L_152" type="car7" route="route2_3" depart="373" departLane = "2" />
	<vehicle id="S_153" type="car9" route="route3_1" depart="373" departLane = "1" />
	<vehicle id="L_154" type="car6" route="route2_3" depart="381" departLane = "2" />
	<vehicle id="R_155" type="car6" route="route3_2" depart="386" departLane = "0" />
	<vehicle id="R_156" type="car6" route="route4_3" depart="388" departLane = "0" />
	<vehicle id="S_157" type="car8" route="route1_3" depart="389" departLane = "1" />
	<vehicle id="S_158" type="car6" route="route2_4" depart="390" departLane = "1" />
	<vehicle id="L_159" type="car9" route="route3_4" depart="391" departLane = "2" />
	<vehicle id="R_160" type="car8" route="route2_1" depart="392" departLane = "0" />
	<vehicle id="S_161" type="car5" route="route1_3" depart="393" departLane = "1" />
	<vehicle id="R_162" type="car9" route="route1_4" depart="394" departLane = "0" />
	<vehicle id="R_163" type="car7" route="route2_1" depart="397" departLane = "0" />
	<vehicle id="R_164" type="car9" route="route1_4" depart="398" departLane = "0" />
	<vehicle id="R_165" type="car8" route="route1_4" depart="399" departLane = "0" />
	<vehicle id="L_166" type="car8" route="route2_3" depart="400" departLane = "2" />
	<vehicle id="S_167" type="car9" route="route4_2" depart="402" departLane = "1" />
	<vehicle id="R_168" type="car7" route="route4_3" depart="403" departLane = "0" />
	<vehicle id="L_169" type="car9" route="route3_4" depart="405" departLane = "2" />
	<vehicle id="S_170" type="car9" route="route1_3" depart="406" departLane = "1" />
	<vehicle id="L_171" type="car6" route="route3_4" depart="406" departLane = "2" />
	<vehicle id="L_172" type="car7" route="route1_2" depart="412" departLane = "2" />
	<vehicle id="L_173" type="car9" route="route1_2" depart="413" departLane = "2" />
	<vehicle id="R_174" type="car5" route="route2_1" depart="413" departLane = "0" />
	<vehicle id="L_175" type="car9" route="route4_1" depart="414" departLane = "2" />
	<vehicle id="S_176" type="car8" route="route3_1" depart="415" departLane = "1" />
	<vehicle id="R_177" type="car5" route="route1_4" depart="417" departLane = "0" />
	<vehicle id="R_178" type="car6" route="route1_4" depart="419" departLane = "0" />
	<vehicle id="L_179" type="car7" route="route1_2" depart="425" departLane = "2" />
	<vehicle id="L_180" type="car9" route="route1_2" depart="427" departLane = "2" />
	<vehicle id="S_181" type="car6" route="route1_3" depart="429" departLane = "1" />
	<vehicle id="S_182" type="car8" route="route1_3" depart="433" departLane = "1" />
	<vehicle id="L_183" type="car6" route="route4_1" depart="433" departLane = "2" />
	<vehicle id="R_184" type="car6" route="route2_1" depart="436" departLane = "0" />
	<vehicle id="S_185" type="car5" route="route2_4" depart="439" departLane = "1" />
	<vehicle id="S_186" type="car8" route="route4_2" depart="439" departLane = "1" />
	<vehicle id="S_187" type="car6" route="route3_1" depart="443" departLane = "1" />
	<vehicle id="R_188" type="car9" route="route4_3" depart="452" departLane = "0" />
	<vehicle id="L_189" type="car6" route="route4_1" depart="453" departLane = "2" />
	<vehicle id="S_190" type="car5" route="route3_1" depart="455" departLane = "1" />
	<vehicle id="L_191" type="car6" route="route4_1" depart="455" departLane = "2" />
	<vehicle id="L_192" type="car9" route="route4_1" depart="458" departLane = "2" />
	<vehicle id="R_193" type="car8" route="route2_1" depart="462" departLane = "0" />
	<vehicle id="R_194" type="car6" route="route4_3" depart="462" departLane = "0" />
	<vehicle id="S_195" type="car6" route="route1_3" depart="467" departLane = "1" />
	<vehicle id="L_196" type="car9" route="route3_4" depart="473" departLane = "2" />
	<vehicle id="L_197" type="car6" route="route4_1" depart="473" departLane = "2" />
	<vehicle id="L_198" type="car6" route="route1_2" depart="475" departLane = "2" />
	<vehicle id="S_199" type="car8" route="route2_4" depart="475" departLane = "1" />
	<vehicle id="L_200" type="car8" route="route1_2" depart="477" departLane = "2" />
	<vehicle id="R_201" type="car8" route="route1_4" depart="481" departLane = "0" />
	<vehicle id="S_202" type="car5" route="route1_3" depart="482" departLane = "1" />
	<vehicle id="L_203" type="car7" route="route4_1" depart="484" departLane = "2" />
	<vehicle id="L_204" type="car6" route="route4_1" depart="485" departLane = "2" />
	<vehicle id="L_205" type="car7" route="route1_2" depart="487" departLane = "2" />
	<vehicle id="R_206" type="car9" route="route2_1" depart="490" departLane = "0" />
	<vehicle id="S_207" type="car7" route="route4_2" depart="490" departLane = "1" />
	<vehicle id="S_208" type="car8" route="route4_2" depart="493" departLane = "1" />
	<vehicle id="R_209" type="car9" route="route4_3" depart="494" departLane = "0" />
	<vehicle id="R_210" type="car5" route="route1_4" depart="495" departLane = "0" />
	<vehicle id="L_211" type="car9" route="route1_2" depart="496" departLane = "2" />
	<vehicle id="S_212" type="car7" route="route3_1" depart="496" departLane = "1" />
	<vehicle id="L_213" type="car7" route="route4_1" depart="496" departLane = "2" />
	<vehicle id="L_214" type="car6" route="route2_3" depart="498" departLane = "2" />
	<vehicle id="R_215" type="car8" route="route4_3" depart="502" departLane = "0" />
	<vehicle id="L_216" type="car8" route="route1_2" depart="512" departLane = "2" />
	<vehicle id="S_217" type="car6" route="route4_2" depart="513" departLane = "1" />
	<vehicle id="S_218" type="car9" route="route1_3" depart="515" departLane = "1" />
	<vehicle id="R_219" type="car5" route="route1_4" depart="517" departLane = "0" />
	<vehicle id="S_220" type="car5" route="route1_3" depart="520" departLane = "1" />
	<vehicle id="R_221" type="car5" route="route4_3" depart="520" departLane = "0" />
	<vehicle id="L_222" type="car9" route="route2_3" depart="522" departLane = "2" />
	<vehicle id="R_223" type="car5" route="route4_3" depart="522" departLane = "0" />
	<vehicle id="L_224" type="car9" route="route3_4" depart="523" departLane = "2" />
	<vehicle id="R_225" type="car9" route="route2_1" depart="531" departLane = "0" />
	<vehicle id="R_226" type="car6" route="route3_2" depart="532" departLane = "0" />
	<vehicle id="L_227" type="car8" route="route4_1" depart="542" departLane = "2" />
	<vehicle id="R_228" type="car9" route="route3_2" depart="544" departLane = "0" />
	<vehicle id="R_229" type="car8" route="route2_1" depart="546" departLane = "0" />
	<vehicle id="L_230" type="car5" route="route3_4" depart="549" departLane = "2" />
	<vehicle id="L_231" type="car6" route="route4_1" depart="553" departLane = "2" />
	<vehicle id="S_232" type="car6" route="route4_2" depart="554" departLane = "1" />
	<vehicle id="L_233" type="car7" route="route2_3" depart="555" departLane = "2" />
	<vehicle id="L_234" type="car5" route="route2_3" depart="557" departLane = "2" />
	<vehicle id="S_235" type="car6" route="route2_4" depart="558" departLane = "1" />
	<vehicle id="S_236" type="car6" route="route2_4" depart="561" departLane = "1" />
	<vehicle id="S_237" type="car6" route="route2_4" depart="563" departLane = "1" />
	<vehicle id="L_238" type="car7" route="route3_4" depart="567" departLane = "2" />
	<vehicle id="S_239" type="car8" route="route1_3" depart="568" departLane = "1" />
	<vehicle id="R_240" type="car9" route="route3_2" depart="568" departLane = "0" />
	<vehicle id="L_241" type="car7" route="route4_1" depart="568" departLane = "2" />
	<vehicle id="S_242" type="car9" route="route1_3" depart="575" departLane = "1" />
	<vehicle id="L_243" type="car7" route="route1_2" depart="577" departLane = "2" />
	<vehicle id="R_244" type="car6" route="route4_3" depart="578" departLane = "0" />
	<vehicle id="S_245" type="car7" route="route1_3" depart="580" departLane = "1" />
	<vehicle id="S_246" type="car7" route="route1_3" depart="585" departLane = "1" />
	<vehicle id="L_247" type="car8" route="route2_3" depart="595" departLane = "2" />
	<vehicle id="L_248" type="car9" route="route4_1" depart="595" departLane = "2" />
	<vehicle id="S_249" type="car7" route="route3_1" depart="599" departLane = "1" />
	<vehicle id="S_250" type="car5" route="route2_4" depart="607" departLane = "1" />
	<vehicle id="R_251" type="car8" route="route4_3" depart="607" departLane = "0" />
	<vehicle id="R_252" type="car8" route="route1_4" depart="610" departLane = "0" />
	<vehicle id="R_253" type="car8" route="route1_4" depart="614" departLane = "0" />
	<vehicle id="R_254" type="car9" route="route4_3" depart="619" departLane = "0" />
	<vehicle id="L_255" type="car5" route="route1_2" depart="621" departLane = "2" />
	<vehicle id="S_256" type="car8" route="route3_1" depart="624" departLane = "1" />
	<vehicle id="S_257" type="car8" route="route3_1" depart="631" departLane = "1" />
	<vehicle id="R_258" type="car7" route="route1_4" depart="633" departLane = "0" />
	<vehicle id="L_259" type="car5" route="route1_2" depart="634" departLane = "2" />
	<vehicle id="L_260" type="car9" route="route2_3" depart="635" departLane = "2" />
	<vehicle id="L_261" type="car8" route="route2_3" depart="637" departLane = "2" />
	<vehicle id="L_262" type="car7" route="route2_3" depart="640" departLane = "2" />
	<vehicle id="R_263" type="car5" route="route2_1" depart="642" departLane = "0" />
	<vehicle id="R_264" type="car5" route="route1_4" depart="643" departLane = "0" />
	<vehicle id="R_265" type="car9" route="route4_3" depart="644" departLane = "0" />
	<vehicle id="L_266" type="car8" route="route1_2" depart="647" departLane = "2" />
	<vehicle id="S_267" type="car9" route="route3_1" depart="649" departLane = "1" />
	<vehicle id="L_268" type="car8" route="route3_4" depart="650" departLane = "2" />
	<vehicle id="S_269" type="car6" route="route3_1" depart="654" departLane = "1" />
	<vehicle id="R_270" type="car7" route="route3_2" depart="657" departLane = "0" />
	<vehicle id="R_271" type="car8" route="route3_2" depart="658" departLane = "0" />
	<vehicle id="S_272" type="car7" route="route4_2" depart="661" departLane = "1" />
	<vehicle id="R_273" type="car8" route="route2_1" depart="662" departLane = "0" />
	<vehicle id="L_274" type="car7" route="route1_2" depart="664" departLane = "2" />
	<vehicle id="R_275" type="car7" route="route3_2" depart="664" departLane = "0" />
	<vehicle id="R_276" type="car9" route="route1_4" depart="669" departLane = "0" />
	<vehicle id="R_277" type="car9" route="route4_3" depart="670" departLane = "0" />
	<vehicle id="S_278" type="car7" route="route3_1" depart="673" departLane = "1" />
	<vehicle id="R_279" type="car5" route="route3_2" depart="686" departLane = "0" />
	<vehicle id="L_280" type="car7" route="route1_2" depart="687" departLane = "2" />
	<vehicle id="R_281" type="car8" route="route3_2" depart="687" departLane = "0" />
	<vehicle id="S_282" type="car9" route="route2_4" depart="695" departLane = "1" />
	<vehicle id="L_283" type="car7" route="route2_3" depart="697" departLane = "2" />
	<vehicle id="S_284" type="car8" route="route4_2" depart="697" departLane = "1" />
	<vehicle id="L_285" type="car9" route="route1_2" depart="698" departLane = "2" />
	<vehicle id="R_286" type="car8" route="route2_1" depart="698" departLane = "0" />
	<vehicle id="S_287" type="car7" route="route1_3" depart="699" departLane = "1" />
	<vehicle id="S_288" type="car5" route="route1_3" depart="700" departLane = "1" />
	<vehicle id="S_289" type="car6" route="route3_1" depart="705" departLane = "1" />
	<vehicle id="S_290" type="car7" route="route4_2" depart="711" departLane = "1" />
	<vehicle id="L_291" type="car8" route="route3_4" depart="714" departLane = "2" />
	<vehicle id="R_292" type="car7" route="route2_1" depart="717" departLane = "0" />
	<vehicle id="L_293" type="car9" route="route3_4" depart="720" departLane = "2" />
	<vehicle id="S_294" type="car9" route="route4_2" depart="728" departLane = "1" />
	<vehicle id="L_295" type="car5" route="route1_2" depart="735" departLane = "2" />
	<vehicle id="L_296" type="car5" route="route4_1" depart="736" departLane = "2" />
	<vehicle id="R_297" type="car6" route="route4_3" depart="739" departLane = "0" />
	<vehicle id="R_298" type="car6" route="route2_1" depart="741" departLane = "0" />
	<vehicle id="R_299" type="car5" route="route4_3" depart="752" departLane = "0" />
	<vehicle id="R_300" type="car8" route="route2_1" depart="755" departLane = "0" />
	<vehicle id="R_301" type="car6" route="route1_4" depart="758" departLane = "0" />
	<vehicle id="L_302" type="car7" route="route1_2" depart="761" departLane = "2" />
	<vehicle id="L_303" type="car9" route="route3_4" depart="762" departLane = "2" />
	<vehicle id="S_304" type="car7" route="route3_1" depart="763" departLane = "1" />
	<vehicle id="L_305" type="car7" route="route1_2" depart="764" departLane = "2" />
	<vehicle id="L_306" type="car9" route="route3_4" depart="764" departLane = "2" />
	<vehicle id="L_307" type="car8" route="route1_2" depart="768" departLane = "2" />
	<vehicle id="R_308" type="car6" route="route4_3" depart="770" departLane = "0" />
	<vehicle id="L_309" type="car5" route="route2_3" depart="775" departLane = "2" />
	<vehicle id="R_310" type="car8" route="route4_3" depart="776" departLane = "0" />
	<vehicle id="L_311" type="car9" route="route1_2" depart="780" departLane = "2" />
	<vehicle id="L_312" type="car6" route="route4_1" depart="785" departLane = "2" />
	<vehicle id="L_313" type="car9" route="route3_4" depart="786" departLane = "2" />
	<vehicle id="R_314" type="car7" route="route1_4" depart="787" departLane = "0" />
	<vehicle id="L_315" type="car5" route="route4_1" depart="790" departLane = "2" />
	<vehicle id="S_316" type="car9" route="route3_1" depart="793" departLane = "1" />
	<vehicle id="S_317" type="car5" route="route1_3" depart="797" departLane = "1" />
	<vehicle id="R_318" type="car6" route="route1_4" depart="798" departLane = "0" />
	<vehicle id="R_319" type="car9" route="route1_4" depart="799" departLane = "0" />
	<vehicle id="L_320" type="car5" route="route3_4" depart="799" departLane = "2" />
	<vehicle id="L_321" type="car5" route="route3_4" depart="801" departLane = "2" />
	<vehicle id="L_322" type="car5" route="route3_4" depart="806" departLane = "2" />
	<vehicle id="L_323" type="car9" route="route2_3" depart="812" departLane = "2" />
	<vehicle id="L_324" type="car5" route="route3_4" depart="814" departLane = "2" />
	<vehicle id="S_325" type="car7" route="route2_4" depart="816" departLane = "1" />
	<vehicle id="R_326" type="car6" route="route2_1" depart="818" departLane = "0" />
	<vehicle id="R_327" type="car9" route="route4_3" depart="823" departLane = "0" />
	<vehicle id="L_328" type="car5" route="route4_1" depart="837" departLane = "2" />
	<vehicle id="S_329" type="car6" route="route4_2" depart="842" departLane = "1" />
	<vehicle id="L_330" type="car8" route="route1_2" depart="849" departLane = "2" />
	<vehicle id="R_331" type="car5" route="route3_2" depart="849" departLane = "0" />
	<vehicle id="L_332" type="car9" route="route1_2" depart="853" departLane = "2" />
	<vehicle id="R_333" type="car6" route="route1_4" depart="855" departLane = "0" />
	<vehicle id="R_334" type="car9" route="route2_1" depart="855" departLane = "0" />
	<vehicle id="R_335" type="car8" route="route1_4" depart="858" departLane = "0" />
	<vehicle id="L_336" type="car9" route="route4_1" depart="859" departLane = "2" />
	<vehicle id="S_337" type="car5" route="route3_1" depart="860" departLane = "1" />
	<vehicle id="S_338" type="car6" route="route1_3" depart="864" departLane = "1" />
	<vehicle id="L_339" type="car5" route="route4_1" depart="864" departLane = "2" />
	<vehicle id="S_340" type="car9" route="route1_3" depart="865" departLane = "1" />
	<vehicle id="L_341" type="car9" route="route2_3" depart="865" departLane = "2" />
	<vehicle id="S_342" type="car9" route="route1_3" depart="869" departLane = "1" />
	<vehicle id="L_343" type="car7" route="route1_2" depart="876" departLane = "2" />
	<vehicle id="R_344" type="car6" route="route1_4" depart="877" departLane = "0" />
	<vehicle id="L_345" type="car9" route="route3_4" depart="879" departLane = "2" />
	<vehicle id="S_346" type="car6" route="route4_2" depart="883" departLane = "1" />
	<vehicle id="L_347" type="car9" route="route2_3" depart="886" departLane = "2" />