<routes>

	<vType id="car5" accel="100.0" decel="100.0" sigma="0.0" length="5" minGap="3.000000" maxSpeed="11.180000" tau="0.100000" carFollowModel="CACC" color="255,255,255"/>
	<vType id="car6" accel="100.0" decel="100.0" sigma="0.0" length="6" minGap="3.000000" maxSpeed="11.180000" tau="0.100000" carFollowModel="CACC" color="255,255,255"/>
	<vType id="car7" accel="100.0" decel="100.0" sigma="0.0" length="7" minGap="3.000000" maxSpeed="11.180000" tau="0.100000" carFollowModel="CACC" color="255,255,255"/>
	<vType id="car8" accel="100.0" decel="100.0" sigma="0.0" length="8" minGap="3.000000" maxSpeed="11.180000" tau="0.100000" carFollowModel="CACC" color="255,255,255"/>
	<vType id="car9" accel="100.0" decel="100.0" sigma="0.0" length="9" minGap="3.000000" maxSpeed="11.180000" tau="0.100000" carFollowModel="CACC" color="255,255,255"/>

	<route id="route0_1_2" edges=" 001_001_1"/>
	<route id="route0_1_3" edges=" 001_001_1"/>
	<route id="route0_1_4" edges=" 001_001_1"/>
	<route id="route0_2_1" edges=" 001_001_2"/>
	<route id="route0_2_3" edges=" 001_001_2"/>
	<route id="route0_2_4" edges=" 001_001_2"/>
	<route id="route0_3_1" edges=" 001_001_3"/>
	<route id="route0_3_2" edges=" 001_001_3"/>
	<route id="route0_3_4" edges=" 001_001_3"/>
	<route id="route0_4_1" edges=" 001_001_4"/>
	<route id="route0_4_2" edges=" 001_001_4"/>
	<route id="route0_4_3" edges=" 001_001_4"/>
	<route id="route1_1_2" edges=" 002_001_1"/>
	<route id="route1_1_3" edges=" 002_001_1"/>
	<route id="route1_1_4" edges=" 002_001_1"/>
	<route id="route1_2_1" edges=" 002_001_2"/>
	<route id="route1_2_3" edges=" 002_001_2"/>
	<route id="route1_2_4" edges=" 002_001_2"/>
	<route id="route1_3_1" edges=" 002_001_3"/>
	<route id="route1_3_2" edges=" 002_001_3"/>
	<route id="route1_3_4" edges=" 002_001_3"/>
	<route id="route1_4_1" edges=" 002_001_4"/>
	<route id="route1_4_2" edges=" 002_001_4"/>
	<route id="route1_4_3" edges=" 002_001_4"/>

	<vehicle id="SR_0" type="car6" route="route0_1_3" depart="0" departLane = "1" departSpeed="11.180000"/>
	<vehicle id="LS_1" type="car5" route="route0_2_3" depart="0" departLane = "1" departSpeed="11.180000"/>
	<vehicle id="RR_2" type="car6" route="route0_4_3" depart="0" departLane = "2" departSpeed="11.180000"/>
	<vehicle id="LX_3" type="car7" route="route1_2_3" depart="0" departLane = "2" departSpeed="11.180000"/>
	<vehicle id="LL_4" type="car5" route="route1_4_1" depart="0" departLane = "1" departSpeed="11.180000"/>
	<vehicle id="SL_5" type="car7" route="route0_1_3" depart="1" departLane = "2" departSpeed="11.180000"/>
	<vehicle id="SX_6" type="car8" route="route0_4_2" depart="1" departLane = "0" departSpeed="11.180000"/>
	<vehicle id="SX_7" type="car5" route="route1_2_4" depart="1" departLane = "0" departSpeed="11.180000"/>
	<vehicle id="LR_8" type="car9" route="route1_4_1" depart="1" departLane = "2" departSpeed="11.180000"/>
	<vehicle id="SX_9" type="car7" route="route0_4_2" depart="2" departLane = "2" departSpeed="11.180000"/>
	<vehicle id="LS_10" type="car6" route="route1_4_1" depart="2" departLane = "0" departSpeed="11.180000"/>
	<vehicle id="LS_11" type="car6" route="route0_2_3" depart="3" departLane = "1" departSpeed="11.180000"/>
	<vehicle id="LX_12" type="car6" route="route0_4_1" depart="3" departLane = "1" departSpeed="11.180000"/>
	<vehicle id="RS_13" type="car9" route="route1_2_1" depart="3" departLane = "1" departSpeed="11.180000"/>
	<vehicle id="LX_14" type="car9" route="route1_3_4" depart="3" departLane = "2" departSpeed="11.180000"/>
	<vehicle id="SR_15" type="car9" route="route0_1_3" depart="4" departLane = "0" departSpeed="11.180000"/>
	<vehicle id="LX_16" type="car6" route="route1_2_3" depart="4" departLane = "2" departSpeed="11.180000"/>
	<vehicle id="LS_17" type="car5" route="route1_4_1" depart="4" departLane = "0" departSpeed="11.180000"/>
	<vehicle id="RR_18" type="car7" route="route0_4_3" depart="5" departLane = "2" departSpeed="11.180000"/>
	<vehicle id="RR_19" type="car8" route="route1_2_1" depart="5" departLane = "0" departSpeed="11.180000"/>
	<vehicle id="RX_20" type="car5" route="route1_4_3" depart="5" departLane = "1" departSpeed="11.180000"/>
	<vehicle id="SX_21" type="car9" route="route0_2_4" depart="6" departLane = "2" departSpeed="11.180000"/>
	<vehicle id="LX_22" type="car6" route="route0_4_1" depart="6" departLane = "2" departSpeed="11.180000"/>
	<vehicle id="SX_23" type="car5" route="route1_2_4" depart="6" departLane = "1" departSpeed="11.180000"/>
	<vehicle id="SS_24" type="car8" route="route1_3_1" depart="6" departLane = "1" departSpeed="11.180000"/>
	<vehicle id="LS_25" type="car9" route="route1_4_1" depart="6" departLane = "0" departSpeed="11.180000"/>
	<vehicle id="SL_26" type="car9" route="route0_1_3" depart="7" departLane = "2" departSpeed="11.180000"/>
	<vehicle id="LS_27" type="car7" route="route0_2_3" depart="7" departLane = "1" departSpeed="11.180000"/>
	<vehicle id="RS_28" type="car7" route="route0_4_3" depart="7" departLane = "1" departSpeed="11.180000"/>
	<vehicle id="LX_29" type="car7" route="route1_2_3" depart="7" departLane = "2" departSpeed="11.180000"/>
	<vehicle id="LX_30" type="car6" route="route1_3_4" depart="7" departLane = "2" departSpeed="11.180000"/>
	<vehicle id="SX_31" type="car7" route="route1_4_2" depart="7" departLane = "2" departSpeed="11.180000"/>
	<vehicle id="LX_32" type="car7" route="route0_1_2" depart="8" departLane = "0" departSpeed="11.180000"/>
	<vehicle id="LS_33" type="car8" route="route0_2_3" depart="8" departLane = "0" departSpeed="11.180000"/>
	<vehicle id="LX_34" type="car8" route="route0_4_1" depart="8" departLane = "0" departSpeed="11.180000"/>
	<vehicle id="SX_35" type="car6" route="route1_2_4" depart="8" departLane = "2" departSpeed="11.180000"/>
	<vehicle id="SR_36" type="car8" route="route0_1_3" depart="9" departLane = "0" departSpeed="11.180000"/>
	<vehicle id="RR_37" type="car7" route="route0_4_3" depart="9" departLane = "1" departSpeed="11.180000"/>
	<vehicle id="RS_38" type="car6" route="route1_2_1" depart="9" departLane = "1" departSpeed="11.180000"/>
	<vehicle id="RX_39" type="car6" route="route1_3_2" depart="9" departLane = "1" departSpeed="11.180000"/>
	<vehicle id="SX_40" type="car5" route="route1_4_2" depart="9" departLane = "2" departSpeed="11.180000"/>
	<vehicle id="SL_41" type="car6" route="route0_1_3" depart="10" departLane = "2" departSpeed="11.180000"/>
	<vehicle id="SX_42" type="car6" route="route0_2_4" depart="10" departLane = "2" departSpeed="11.180000"/>
	<vehicle id="LX_43" type="car8" route="route0_4_1" depart="10" departLane = "1" departSpeed="11.180000"/>
	<vehicle id="LX_44" type="car6" route="route1_2_3" depart="10" departLane = "0" departSpeed="11.180000"/>
	<vehicle id="RX_45" type="car5" route="route1_4_3" depart="10" departLane = "2" departSpeed="11.180000"/>
	<vehicle id="LX_46" type="car9" route="route0_1_2" depart="11" departLane = "1" departSpeed="11.180000"/>
	<vehicle id="RX_47" type="car5" route="route0_2_1" depart="11" departLane = "0" departSpeed="11.180000"/>
	<vehicle id="SX_48" type="car9" route="route0_4_2" depart="11" departLane = "0" departSpeed="11.180000"/>
	<vehicle id="RX_49" type="car9" route="route1_3_2" depart="11" departLane = "0" departSpeed="11.180000"/>
	<vehicle id="SX_50" type="car6" route="route1_4_2" depart="11" departLane = "2" departSpeed="11.180000"/>
	<vehicle id="SL_51" type="car8" route="route0_1_3" depart="12" departLane = "0" departSpeed="11.180000"/>
	<vehicle id="LL_52" type="car7" route="route0_2_3" depart="12" departLane = "1" departSpeed="11.180000"/>
	<vehicle id="LX_53" type="car9" route="route0_4_1" depart="12" departLane = "1" departSpeed="11.180000"/>
	<vehicle id="LX_54" type="car9" route="route1_2_3" depart="12" departLane = "0" departSpeed="11.180000"/>
	<vehicle id="LX_55" type="car9" route="route0_1_2" depart="13" departLane = "2" departSpeed="11.180000"/>
	<vehicle id="SX_56" type="car9" route="route0_2_4" depart="13" departLane = "2" departSpeed="11.180000"/>
	<vehicle id="LX_57" type="car6" route="route0_4_1" depart="13" departLane = "1" departSpeed="11.180000"/>
	<vehicle id="RR_58" type="car5" route="route1_2_1" depart="13" departLane = "0" departSpeed="11.180000"/>
	<vehicle id="SR_59" type="car9" route="route1_3_1" depart="13" departLane = "0" departSpeed="11.180000"/>
	<vehicle id="LR_60" type="car8" route="route1_4_1" depart="13" departLane = "2" departSpeed="11.180000"/>
	<vehicle id="RR_61" type="car8" route="route1_2_1" depart="14" departLane = "0" departSpeed="11.180000"/>
	<vehicle id="SR_62" type="car8" route="route1_3_1" depart="14" departLane = "0" departSpeed="11.180000"/>
	<vehicle id="RX_63" type="car9" route="route1_4_3" depart="14" departLane = "1" departSpeed="11.180000"/>
	<vehicle id="SR_64" type="car6" route="route0_1_3" depart="15" departLane = "1" departSpeed="11.180000"/>
	<vehicle id="SX_65" type="car6" route="route0_4_2" depart="15" departLane = "2" departSpeed="11.180000"/>
	<vehicle id="SX_66" type="car9" route="route1_2_4" depart="15" departLane = "1" departSpeed="11.180000"/>
	<vehicle id="SL_67" type="car9" route="route1_3_1" depart="15" departLane = "2" departSpeed="11.180000"/>
	<vehicle id="LR_68" type="car9" route="route0_2_3" depart="16" departLane = "1" departSpeed="11.180000"/>
	<vehicle id="RR_69" type="car6" route="route0_4_3" depart="16" departLane = "0" departSpeed="11.180000"/>
	<vehicle id="RS_70" type="car7" route="route1_2_1" depart="16" departLane = "1" departSpeed="11.180000"/>
	<vehicle id="LS_71" type="car5" route="route1_4_1" depart="16" departLane = "0" departSpeed="11.180000"/>
	<vehicle id="RX_72" type="car9" route="route0_1_4" depart="17" departLane = "0" departSpeed="11.180000"/>
	<vehicle id="RS_73" type="car6" route="route0_4_3" depart="17" departLane = "1" departSpeed="11.180000"/>
	<vehicle id="SX_74" type="car8" route="route1_2_4" depart="17" departLane = "1" departSpeed="11.180000"/>
	<vehicle id="LX_75" type="car5" route="route1_3_4" depart="17" departLane = "1" departSpeed="11.180000"/>
	<vehicle id="LL_76" type="car7" route="route1_4_1" depart="17" departLane = "0" departSpeed="11.180000"/>
	<vehicle id="RX_77" type="car5" route="route0_2_1" depart="18" departLane = "0" departSpeed="11.180000"/>
	<vehicle id="SX_78" type="car8" route="route0_4_2" depart="18" departLane = "1" departSpeed="11.180000"/>
	<vehicle id="LX_79" type="car8" route="route1_2_3" depart="18" departLane = "2" departSpeed="11.180000"/>
	<vehicle id="SL_80" type="car7" route="route1_3_1" depart="18" departLane = "1" departSpeed="11.180000"/>
	<vehicle id="LX_81" type="car7" route="route0_1_2" depart="19" departLane = "2" departSpeed="11.180000"/>
	<vehicle id="RX_82" type="car8" route="route0_2_1" depart="19" departLane = "1" departSpeed="11.180000"/>
	<vehicle id="SX_83" type="car7" route="route0_4_2" depart="19" departLane = "1" departSpeed="11.180000"/>
	<vehicle id="SX_84" type="car8" route="route1_4_2" depart="19" departLane = "2" departSpeed="11.180000"/>
	<vehicle id="LX_85" type="car5" route="route0_1_2" depart="20" departLane = "1" departSpeed="11.180000"/>
	<vehicle id="SX_86" type="car8" route="route0_4_2" depart="20" departLane = "2" departSpeed="11.180000"/>
	<vehicle id="RS_87" type="car7" route="route1_2_1" depart="20" departLane = "2" departSpeed="11.180000"/>
	<vehicle id="LX_88" type="car5" route="route1_3_4" depart="20" departLane = "1" departSpeed="11.180000"/>
	<vehicle id="LL_89" type="car5" route="route1_4_1" depart="20" departLane = "2" departSpeed="11.180000"/>
	<vehicle id="RX_90" type="car9" route="route0_1_4" depart="21" departLane = "0" departSpeed="11.180000"/>
	<vehicle id="SX_91" type="car9" route="route0_2_4" depart="21" departLane = "0" departSpeed="11.180000"/>
	<vehicle id="RL_92" type="car8" route="route0_4_3" depart="21" departLane = "2" departSpeed="11.180000"/>
	<vehicle id="LR_93" type="car5" route="route1_4_1" depart="21" departLane = "2" departSpeed="11.180000"/>
	<vehicle id="RX_94" type="car5" route="route0_2_1" depart="22" departLane = "2" departSpeed="11.180000"/>
	<vehicle id="SL_95" type="car7" route="route1_3_1" depart="22" departLane = "0" departSpeed="11.180000"/>
	<vehicle id="RX_96" type="car6" route="route0_1_4" depart="23" departLane = "0" departSpeed="11.180000"/>
	<vehicle id="LR_97" type="car6" route="route0_2_3" depart="23" departLane = "2" departSpeed="11.180000"/>
	<vehicle id="LX_98" type="car6" route="route0_4_1" depart="23" departLane = "1" departSpeed="11.180000"/>
	<vehicle id="RR_99" type="car7" route="route1_2_1" depart="23" departLane = "0" departSpeed="11.180000"/>
	<vehicle id="RX_100" type="car5" route="route1_4_3" depart="23" departLane = "2" departSpeed="11.180000"/>
	<vehicle id="SR_101" type="car8" route="route0_1_3" depart="24" departLane = "2" departSpeed="11.180000"/>
	<vehicle id="LL_102" type="car8" route="route0_2_3" depart="24" departLane = "1" departSpeed="11.180000"/>
	<vehicle id="SX_103" type="car8" route="route1_2_4" depart="24" departLane = "0" departSpeed="11.180000"/>
	<vehicle id="RX_104" type="car8" route="route1_4_3" depart="24" departLane = "1" departSpeed="11.180000"/>
	<vehicle id="LX_105" type="car5" route="route0_1_2" depart="25" departLane = "0" departSpeed="11.180000"/>
	<vehicle id="RX_106" type="car6" route="route0_2_1" depart="25" departLane = "0" departSpeed="11.180000"/>
	<vehicle id="RR_107" type="car6" route="route0_4_3" depart="25" departLane = "2" departSpeed="11.180000"/>
	<vehicle id="SL_108" type="car7" route="route1_3_1" depart="25" departLane = "2" departSpeed="11.180000"/>
	<vehicle id="LR_109" type="car5" route="route1_4_1" depart="25" departLane = "0" departSpeed="11.180000"/>
	<vehicle id="RX_110" type="car5" route="route0_1_4" depart="26" departLane = "1" departSpeed="11.180000"/>
	<vehicle id="RX_111" type="car8" route="route0_2_1" depart="26" departLane = "0" departSpeed="11.180000"/>
	<vehicle id="SX_112" type="car7" route="route0_4_2" depart="26" departLane = "2" departSpeed="11.180000"/>
	<vehicle id="LX_113" type="car9" route="route1_2_3" depart="26" departLane = "1" departSpeed="11.180000"/>
	<vehicle id="RX_114" type="car8" route="route1_4_3" depart="26" departLane = "1" departSpeed="11.180000"/>
	<vehicle id="RX_115" type="car9" route="route0_2_1" depart="27" departLane = "2" departSpeed="11.180000"/>
	<vehicle id="LX_116" type="car6" route="route0_4_1" depart="27" departLane = "0" departSpeed="11.180000"/>
	<vehicle id="LX_117" type="car9" route="route1_3_4" depart="27" departLane = "2" departSpeed="11.180000"/>
	<vehicle id="RX_118" type="car6" route="route1_4_3" depart="27" departLane = "0" departSpeed="11.180000"/>
	<vehicle id="RX_119" type="car9" route="route0_1_4" depart="28" departLane = "2" departSpeed="11.180000"/>
	<vehicle id="LX_120" type="car6" route="route0_4_1" depart="28" departLane = "2" departSpeed="11.180000"/>
	<vehicle id="LX_121" type="car5" route="route1_2_3" depart="28" departLane = "2" departSpeed="11.180000"/>
	<vehicle id="SS_122" type="car6" route="route1_3_1" depart="28" departLane = "2" departSpeed="11.180000"/>
	<vehicle id="LR_123" type="car8" route="route1_4_1" depart="28" departLane = "1" departSpeed="11.180000"/>
	<vehicle id="SR_124" type="car7" route="route0_1_3" depart="29" departLane = "1" departSpeed="11.180000"/>
	<vehicle id="LR_125" type="car7" route="route0_2_3" depart="29" departLane = "0" departSpeed="11.180000"/>
	<vehicle id="RS_126" type="car5" route="route1_2_1" depart="29" departLane = "1" departSpeed="11.180000"/>
	<vehicle id="RX_127" type="car5" route="route1_3_2" depart="29" departLane = "1" departSpeed="11.180000"/>
	<vehicle id="RX_128" type="car6" route="route0_2_1" depart="30" departLane = "2" departSpeed="11.180000"/>
	<vehicle id="RX_129" type="car8" route="route1_3_2" depart="30" departLane = "2" departSpeed="11.180000"/>
	<vehicle id="LX_130" type="car9" route="route0_1_2" depart="31" departLane = "2" departSpeed="11.180000"/>
	<vehicle id="LR_131" type="car5" route="route0_2_3" depart="31" departLane = "1" departSpeed="11.180000"/>
	<vehicle id="LX_132" type="car8" route="route0_4_1" depart="31" departLane = "1" departSpeed="11.180000"/>
	<vehicle id="SX_133" type="car5" route="route1_2_4" depart="31" departLane = "1" departSpeed="11.180000"/>
	<vehicle id="LX_134" type="car5" route="route1_3_4" depart="31" departLane = "1" departSpeed="11.180000"/>
	<vehicle id="RX_135" type="car9" route="route0_1_4" depart="32" departLane = "0" departSpeed="11.180000"/>
	<vehicle id="SX_136" type="car8" route="route0_2_4" depart="32" departLane = "0" departSpeed="11.180000"/>
	<vehicle id="RL_137" type="car8" route="route0_4_3" depart="32" departLane = "1" departSpeed="11.180000"/>
	<vehicle id="SX_138" type="car5" route="route1_2_4" depart="32" departLane = "0" departSpeed="11.180000"/>
	<vehicle id="LX_139" type="car8" route="route1_3_4" depart="32" departLane = "2" departSpeed="11.180000"/>
	<vehicle id="RX_140" type="car6" route="route1_4_3" depart="32" departLane = "2" departSpeed="11.180000"/>
	<vehicle id="SL_141" type="car9" route="route0_1_3" depart="33" departLane = "1" departSpeed="11.180000"/>
	<vehicle id="LS_142" type="car6" route="route0_2_3" depart="33" departLane = "1" departSpeed="11.180000"/>
	<vehicle id="LX_143" type="car7" route="route1_2_3" depart="33" departLane = "0" departSpeed="11.180000"/>
	<vehicle id="LX_144" type="car6" route="route1_3_4" depart="33" departLane = "2" departSpeed="11.180000"/>
	<vehicle id="SS_145" type="car5" route="route0_1_3" depart="34" departLane = "0" departSpeed="11.180000"/>
	<vehicle id="SX_146" type="car8" route="route0_2_4" depart="34" departLane = "2" departSpeed="11.180000"/>
	<vehicle id="SX_147" type="car7" route="route0_4_2" depart="34" departLane = "0" departSpeed="11.180000"/>
	<vehicle id="SS_148" type="car6" route="route0_1_3" depart="35" departLane = "0" departSpeed="11.180000"/>
	<vehicle id="LL_149" type="car7" route="route0_2_3" depart="35" departLane = "1" departSpeed="11.180000"/>
	<vehicle id="RL_150" type="car8" route="route0_4_3" depart="35" departLane = "0" departSpeed="11.180000"/>
	<vehicle id="LX_151" type="car9" route="route1_2_3" depart="35" departLane = "2" departSpeed="11.180000"/>
	<vehicle id="LS_152" type="car7" route="route1_4_1" depart="35" departLane = "1" departSpeed="11.180000"/>
	<vehicle id="LX_153" type="car8" route="route0_1_2" depart="36" departLane = "2" departSpeed="11.180000"/>
	<vehicle id="LS_154" type="car7" route="route0_2_3" depart="36" departLane = "2" departSpeed="11.180000"/>
	<vehicle id="LX_155" type="car5" route="route0_4_1" depart="36" departLane = "2" departSpeed="11.180000"/>
	<vehicle id="RX_156" type="car7" route="route1_3_2" depart="36" departLane = "1" departSpeed="11.180000"/>
	<vehicle id="RX_157" type="car7" route="route1_4_3" depart="36" departLane = "0" departSpeed="11.180000"/>
	<vehicle id="SR_158" type="car8" route="route0_1_3" depart="37" departLane = "1" departSpeed="11.180000"/>
	<vehicle id="SX_159" type="car9" route="route0_2_4" depart="37" departLane = "1" departSpeed="11.180000"/>
	<vehicle id="LX_160" type="car8" route="route1_2_3" depart="37" departLane = "2" departSpeed="11.180000"/>
	<vehicle id="SS_161" type="car6" route="route1_3_1" depart="37" departLane = "1" departSpeed="11.180000"/>
	<vehicle id="SX_162" type="car9" route="route1_4_2" depart="37" departLane = "1" departSpeed="11.180000"/>
	<vehicle id="LX_163" type="car8" route="route0_1_2" depart="38" departLane = "2" departSpeed="11.180000"/>
	<vehicle id="LR_164" type="car8" route="route0_2_3" depart="38" departLane = "2" departSpeed="11.180000"/>
	<vehicle id="LS_165" type="car9" route="route1_4_1" depart="38" departLane = "2" departSpeed="11.180000"/>
	<vehicle id="RX_166" type="car7" route="route0_2_1" depart="39" departLane = "2" departSpeed="11.180000"/>
	<vehicle id="LX_167" type="car5" route="route0_4_1" depart="39" departLane = "0" departSpeed="11.180000"/>
	<vehicle id="LX_168" type="car7" route="route1_2_3" depart="39" departLane = "0" departSpeed="11.180000"/>
	<vehicle id="RX_169" type="car7" route="route1_3_2" depart="39" departLane = "1" departSpeed="11.180000"/>
	<vehicle id="SX_170" type="car7" route="route1_4_2" depart="39" departLane = "0" departSpeed="11.180000"/>
	<vehicle id="SX_171" type="car9" route="route0_2_4" depart="40" departLane = "0" departSpeed="11.180000"/>
	<vehicle id="LX_172" type="car7" route="route1_2_3" depart="40" departLane = "1" departSpeed="11.180000"/>
	<vehicle id="SL_173" type="car5" route="route1_3_1" depart="40" departLane = "0" departSpeed="11.180000"/>
	<vehicle id="LR_174" type="car5" route="route1_4_1" depart="40" departLane = "2" departSpeed="11.180000"/>
	<vehicle id="LX_175" type="car6" route="route0_1_2" depart="41" departLane = "0" departSpeed="11.180000"/>
	<vehicle id="LR_176" type="car5" route="route0_2_3" depart="41" departLane = "1" departSpeed="11.180000"/>
	<vehicle id="RS_177" type="car5" route="route0_4_3" depart="41" departLane = "0" departSpeed="11.180000"/>
	<vehicle id="RS_178" type="car5" route="route1_2_1" depart="41" departLane = "0" departSpeed="11.180000"/>
	<vehicle id="SR_179" type="car8" route="route1_3_1" depart="41" departLane = "1" departSpeed="11.180000"/>
	<vehicle id="LR_180" type="car6" route="route1_4_1" depart="41" departLane = "1" departSpeed="11.180000"/>
	<vehicle id="LX_181" type="car6" route="route0_1_2" depart="42" departLane = "2" departSpeed="11.180000"/>
	<vehicle id="RX_182" type="car5" route="route0_2_1" depart="42" departLane = "1" departSpeed="11.180000"/>
	<vehicle id="RS_183" type="car5" route="route0_4_3" depart="42" departLane = "1" departSpeed="11.180000"/>
	<vehicle id="RS_184" type="car6" route="route1_2_1" depart="42" departLane = "2" departSpeed="11.180000"/>
	<vehicle id="RX_185" type="car6" route="route1_4_3" depart="42" departLane = "2" departSpeed="11.180000"/>
	<vehicle id="LX_186" type="car9" route="route0_1_2" depart="43" departLane = "0" departSpeed="11.180000"/>
	<vehicle id="SX_187" type="car5" route="route0_2_4" depart="43" departLane = "1" departSpeed="11.180000"/>
	<vehicle id="RR_188" type="car7" route="route0_4_3" depart="43" departLane = "2" departSpeed="11.180000"/>
	<vehicle id="LX_189" type="car5" route="route1_2_3" depart="43" departLane = "0" departSpeed="11.180000"/>
	<vehicle id="LX_190" type="car5" route="route1_3_4" depart="43" departLane = "0" departSpeed="11.180000"/>
	<vehicle id="RX_191" type="car6" route="route1_4_3" depart="43" departLane = "2" departSpeed="11.180000"/>
	<vehicle id="SX_192" type="car9" route="route0_2_4" depart="44" departLane = "2" departSpeed="11.180000"/>
	<vehicle id="LX_193" type="car8" route="route1_2_3" depart="44" departLane = "0" departSpeed="11.180000"/>
	<vehicle id="RX_194" type="car9" route="route1_4_3" depart="44" departLane = "0" departSpeed="11.180000"/>
	<vehicle id="SR_195" type="car6" route="route0_1_3" depart="45" departLane = "1" departSpeed="11.180000"/>
	<vehicle id="SX_196" type="car5" route="route0_2_4" depart="45" departLane = "2" departSpeed="11.180000"/>
	<vehicle id="SX_197" type="car6" route="route1_4_2" depart="45" departLane = "2" departSpeed="11.180000"/>
	<vehicle id="SL_198" type="car8" route="route0_1_3" depart="46" departLane = "0" departSpeed="11.180000"/>
	<vehicle id="RX_199" type="car5" route="route0_2_1" depart="46" departLane = "0" departSpeed="11.180000"/>
	<vehicle id="RR_200" type="car6" route="route1_2_1" depart="46" departLane = "2" departSpeed="11.180000"/>
	<vehicle id="RX_201" type="car8" route="route1_3_2" depart="46" departLane = "0" departSpeed="11.180000"/>
	<vehicle id="LR_202" type="car8" route="route1_4_1" depart="46" departLane = "1" departSpeed="11.180000"/>
	<vehicle id="RX_203" type="car6" route="route0_1_4" depart="47" departLane = "0" departSpeed="11.180000"/>
	<vehicle id="SX_204" type="car9" route="route0_4_2" depart="47" departLane = "2" departSpeed="11.180000"/>
	<vehicle id="SX_205" type="car8" route="route1_2_4" depart="47" departLane = "2" departSpeed="11.180000"/>
	<vehicle id="LX_206" type="car5" route="route1_3_4" depart="47" departLane = "1" departSpeed="11.180000"/>
	<vehicle id="RX_207" type="car5" route="route1_4_3" depart="47" departLane = "2" departSpeed="11.180000"/>
	<vehicle id="LX_208" type="car5" route="route0_1_2" depart="48" departLane = "0" departSpeed="11.180000"/>
	<vehicle id="SX_209" type="car5" route="route0_2_4" depart="48" departLane = "0" departSpeed="11.180000"/>
	<vehicle id="LX_210" type="car7" route="route0_4_1" depart="48" departLane = "1" departSpeed="11.180000"/>
	<vehicle id="LX_211" type="car9" route="route1_2_3" depart="48" departLane = "0" departSpeed="11.180000"/>
	<vehicle id="SS_212" type="car7" route="route1_3_1" depart="48" departLane = "1" departSpeed="11.180000"/>
	<vehicle id="RX_213" type="car7" route="route0_1_4" depart="49" departLane = "2" departSpeed="11.180000"/>
	<vehicle id="RX_214" type="car5" route="route0_2_1" depart="49" departLane = "0" departSpeed="11.180000"/>
	<vehicle id="RL_215" type="car9" route="route1_2_1" depart="49" departLane = "0" departSpeed="11.180000"/>
	<vehicle id="SS_216" type="car5" route="route1_3_1" depart="49" departLane = "2" departSpeed="11.180000"/>
	<vehicle id="SX_217" type="car9" route="route1_4_2" depart="49" departLane = "0" departSpeed="11.180000"/>
	<vehicle id="SS_218" type="car8" route="route0_1_3" depart="50" departLane = "1" departSpeed="11.180000"/>
	<vehicle id="RS_219" type="car7" route="route0_4_3" depart="50" departLane = "1" departSpeed="11.180000"/>
	<vehicle id="SX_220" type="car7" route="route1_2_4" depart="50" departLane = "2" departSpeed="11.180000"/>
	<vehicle id="RX_221" type="car7" route="route1_4_3" depart="50" departLane = "1" departSpeed="11.180000"/>
	<vehicle id="LS_222" type="car7" route="route0_2_3" depart="51" departLane = "1" departSpeed="11.180000"/>
	<vehicle id="LX_223" type="car8" route="route0_4_1" depart="51" departLane = "1" departSpeed="11.180000"/>
	<vehicle id="LX_224" type="car8" route="route1_2_3" depart="51" departLane = "1" departSpeed="11.180000"/>
	<vehicle id="LX_225" type="car9" route="route1_3_4" depart="51" departLane = "1" departSpeed="11.180000"/>
	<vehicle id="LL_226" type="car5" route="route1_4_1" depart="51" departLane = "1" departSpeed="11.180000"/>
	<vehicle id="SS_227" type="car9" route="route0_1_3" depart="52" departLane = "0" departSpeed="11.180000"/>
	<vehicle id="RX_228" type="car7" route="route1_3_2" depart="52" departLane = "2" departSpeed="11.180000"/>
	<vehicle id="SX_229" type="car9" route="route1_4_2" depart="52" departLane = "2" departSpeed="11.180000"/>
	<vehicle id="RX_230" type="car7" route="route0_2_1" depart="53" departLane = "2" departSpeed="11.180000"/>
	<vehicle id="SR_231" type="car5" route="route1_3_1" depart="53" departLane = "2" departSpeed="11.180000"/>
	<vehicle id="SX_232" type="car6" route="route1_4_2" depart="53" departLane = "2" departSpeed="11.180000"/>
	<vehicle id="SL_233" type="car5" route="route0_1_3" depart="54" departLane = "1" departSpeed="11.180000"/>
	<vehicle id="RR_234" type="car6" route="route0_4_3" depart="54" departLane = "1" departSpeed="11.180000"/>
	<vehicle id="LS_235" type="car6" route="route1_4_1" depart="54" departLane = "0" departSpeed="11.180000"/>
	<vehicle id="RX_236" type="car5" route="route0_1_4" depart="55" departLane = "0" departSpeed="11.180000"/>
	<vehicle id="LX_237" type="car6" route="route0_1_2" depart="56" departLane = "0" departSpeed="11.180000"/>
	<vehicle id="LR_238" type="car7" route="route0_2_3" depart="56" departLane = "1" departSpeed="11.180000"/>
	<vehicle id="LX_239" type="car6" route="route0_4_1" depart="56" departLane = "2" departSpeed="11.180000"/>
	<vehicle id="RS_240" type="car9" route="route1_2_1" depart="56" departLane = "2" departSpeed="11.180000"/>
	<vehicle id="RX_241" type="car9" route="route1_3_2" depart="56" departLane = "0" departSpeed="11.180000"/>
	<vehicle id="SX_242" type="car7" route="route1_4_2" depart="56" departLane = "0" departSpeed="11.180000"/>
	<vehicle id="RX_243" type="car5" route="route0_1_4" depart="57" departLane = "0" departSpeed="11.180000"/>
	<vehicle id="SX_244" type="car7" route="route0_2_4" depart="57" departLane = "2" departSpeed="11.180000"/>
	<vehicle id="SX_245" type="car5" route="route1_4_2" depart="57" departLane = "0" departSpeed="11.180000"/>
	<vehicle id="LX_246" type="car5" route="route0_1_2" depart="58" departLane = "1" departSpeed="11.180000"/>
	<vehicle id="SX_247" type="car6" route="route0_2_4" depart="58" departLane = "0" departSpeed="11.180000"/>
	<vehicle id="SX_248" type="car7" route="route0_4_2" depart="58" departLane = "2" departSpeed="11.180000"/>
	<vehicle id="RR_249" type="car7" route="route1_2_1" depart="58" departLane = "0" departSpeed="11.180000"/>
	<vehicle id="LX_250" type="car9" route="route1_3_4" depart="58" departLane = "2" departSpeed="11.180000"/>
	<vehicle id="LX_251" type="car8" route="route0_1_2" depart="59" departLane = "0" departSpeed="11.180000"/>
	<vehicle id="LX_252" type="car7" route="route0_4_1" depart="59" departLane = "2" departSpeed="11.180000"/>
	<vehicle id="LX_253" type="car5" route="route1_2_3" depart="59" departLane = "0" departSpeed="11.180000"/>
	<vehicle id="RX_254" type="car9" route="route1_3_2" depart="59" departLane = "2" departSpeed="11.180000"/>
	<vehicle id="SX_255" type="car9" route="route1_4_2" depart="59" departLane = "1" departSpeed="11.180000"/>
	<vehicle id="SX_256" type="car7" route="route0_2_4" depart="60" departLane = "1" departSpeed="11.180000"/>
	<vehicle id="SX_257" type="car8" route="route0_4_2" depart="60" departLane = "0" departSpeed="11.180000"/>
	<vehicle id="LX_258" type="car6" route="route1_3_4" depart="60" departLane = "1" departSpeed="11.180000"/>
	<vehicle id="SX_259" type="car7" route="route1_4_2" depart="60" departLane = "2" departSpeed="11.180000"/>
	<vehicle id="RX_260" type="car7" route="route0_2_1" depart="61" departLane = "0" departSpeed="11.180000"/>