<routes>

	<vType id="car5" accel="100.0" decel="100.0" sigma="0.0" length="5" minGap="3.000000" maxSpeed="11.180000" tau="0.100000" carFollowModel="CACC" color="255,255,255"/>
	<vType id="car6" accel="100.0" decel="100.0" sigma="0.0" length="6" minGap="3.000000" maxSpeed="11.180000" tau="0.100000" carFollowModel="CACC" color="255,255,255"/>
	<vType id="car7" accel="100.0" decel="100.0" sigma="0.0" length="7" minGap="3.000000" maxSpeed="11.180000" tau="0.100000" carFollowModel="CACC" color="255,255,255"/>
	<vType id="car8" accel="100.0" decel="100.0" sigma="0.0" length="8" minGap="3.000000" maxSpeed="11.180000" tau="0.100000" carFollowModel="CACC" color="255,255,255"/>
	<vType id="car9" accel="100.0" decel="100.0" sigma="0.0" length="9" minGap="3.000000" maxSpeed="11.180000" tau="0.100000" carFollowModel="CACC" color="255,255,255"/>

	<route id="route0_1_2" edges=" 001_001_1"/>
	<route id="route0_1_3" edges=" 001_001_1"/>
	<route id="route0_1_4" edges=" 001_001_1"/>
	<route id="route0_2_1" edges=" 001_001_2"/>
	<route id="route0_2_3" edges=" 001_001_2"/>
	<route id="route0_2_4" edges=" 001_001_2"/>
	<route id="route0_3_1" edges=" 001_001_3"/>
	<route id="route0_3_2" edges=" 001_001_3"/>
	<route id="route0_3_4" edges=" 001_001_3"/>
	<route id="route0_4_1" edges=" 001_001_4"/>
	<route id="route0_4_2" edges=" 001_001_4"/>
	<route id="route0_4_3" edges=" 001_001_4"/>
	<route id="route1_1_2" edges=" 002_001_1"/>
	<route id="route1_1_3" edges=" 002_001_1"/>
	<route id="route1_1_4" edges=" 002_001_1"/>
	<route id="route1_2_1" edges=" 002_001_2"/>
	<route id="route1_2_3" edges=" 002_001_2"/>
	<route id="route1_2_4" edges=" 002_001_2"/>
	<route id="route1_3_1" edges=" 002_001_3"/>
	<route id="route1_3_2" edges=" 002_001_3"/>
	<route id="route1_3_4" edges=" 002_001_3"/>
	<route id="route1_4_1" edges=" 002_001_4"/>
	<route id="route1_4_2" edges=" 002_001_4"/>
	<route id="route1_4_3" edges=" 002_001_4"/>

	<vehicle id="SR_0" type="car5" route="route0_1_3" depart="0" departLane = "1" departSpeed="11.180000"/>
	<vehicle id="LL_1" type="car8" route="route0_2_3" depart="0" departLane = "2" departSpeed="11.180000"/>
	<vehicle id="LX_2" type="car8" route="route0_4_1" depart="0" departLane = "2" departSpeed="11.180000"/>
	<vehicle id="LX_3" type="car6" route="route1_2_3" depart="0" departLane = "2" departSpeed="11.180000"/>
	<vehicle id="LX_4" type="car5" route="route1_3_4" depart="0" departLane = "2" departSpeed="11.180000"/>
	<vehicle id="SX_5" type="car8" route="route1_4_2" depart="0" departLane = "1" departSpeed="11.180000"/>
	<vehicle id="SS_6" type="car5" route="route0_1_3" depart="1" departLane = "1" departSpeed="11.180000"/>
	<vehicle id="SX_7" type="car7" route="route0_2_4" depart="1" departLane = "1" departSpeed="11.180000"/>
	<vehicle id="RL_8" type="car6" route="route0_4_3" depart="1" departLane = "0" departSpeed="11.180000"/>
	<vehicle id="RL_9" type="car5" route="route1_2_1" depart="1" departLane = "0" departSpeed="11.180000"/>
	<vehicle id="RX_10" type="car5" route="route1_4_3" depart="1" departLane = "0" departSpeed="11.180000"/>
	<vehicle id="SS_11" type="car5" route="route0_1_3" depart="2" departLane = "1" departSpeed="11.180000"/>
	<vehicle id="LX_12" type="car6" route="route0_4_1" depart="2" departLane = "2" departSpeed="11.180000"/>
	<vehicle id="LX_13" type="car9" route="route1_3_4" depart="2" departLane = "2" departSpeed="11.180000"/>
	<vehicle id="RX_14" type="car8" route="route1_4_3" depart="2" departLane = "0" departSpeed="11.180000"/>
	<vehicle id="RX_15" type="car7" route="route0_2_1" depart="3" departLane = "0" departSpeed="11.180000"/>
	<vehicle id="LX_16" type="car6" route="route0_4_1" depart="3" departLane = "2" departSpeed="11.180000"/>
	<vehicle id="RR_17" type="car7" route="route1_2_1" depart="3" departLane = "0" departSpeed="11.180000"/>
	<vehicle id="RX_18" type="car9" route="route1_4_3" depart="3" departLane = "0" departSpeed="11.180000"/>
	<vehicle id="LL_19" type="car7" route="route0_2_3" depart="4" departLane = "2" departSpeed="11.180000"/>
	<vehicle id="LX_20" type="car7" route="route0_4_1" depart="4" departLane = "2" departSpeed="11.180000"/>
	<vehicle id="RL_21" type="car9" route="route1_2_1" depart="4" departLane = "0" departSpeed="11.180000"/>
	<vehicle id="SX_22" type="car6" route="route1_4_2" depart="4" departLane = "1" departSpeed="11.180000"/>
	<vehicle id="RX_23" type="car9" route="route0_1_4" depart="5" departLane = "0" departSpeed="11.180000"/>
	<vehicle id="SX_24" type="car9" route="route0_4_2" depart="5" departLane = "1" departSpeed="11.180000"/>
	<vehicle id="RL_25" type="car5" route="route1_2_1" depart="5" departLane = "0" departSpeed="11.180000"/>
	<vehicle id="RX_26" type="car8" route="route1_3_2" depart="5" departLane = "0" departSpeed="11.180000"/>
	<vehicle id="RX_27" type="car6" route="route1_4_3" depart="5" departLane = "0" departSpeed="11.180000"/>
	<vehicle id="LX_28" type="car7" route="route0_1_2" depart="6" departLane = "2" departSpeed="11.180000"/>
	<vehicle id="RX_29" type="car9" route="route0_2_1" depart="6" departLane = "0" departSpeed="11.180000"/>
	<vehicle id="RR_30" type="car6" route="route0_4_3" depart="6" departLane = "0" departSpeed="11.180000"/>
	<vehicle id="LX_31" type="car8" route="route1_2_3" depart="6" departLane = "2" departSpeed="11.180000"/>
	<vehicle id="RX_32" type="car5" route="route1_3_2" depart="6" departLane = "0" departSpeed="11.180000"/>
	<vehicle id="LS_33" type="car7" route="route1_4_1" depart="6" departLane = "2" departSpeed="11.180000"/>
	<vehicle id="RX_34" type="car9" route="route0_1_4" depart="7" departLane = "0" departSpeed="11.180000"/>
	<vehicle id="LL_35" type="car8" route="route0_2_3" depart="7" departLane = "2" departSpeed="11.180000"/>
	<vehicle id="LX_36" type="car6" route="route0_4_1" depart="7" departLane = "2" departSpeed="11.180000"/>
	<vehicle id="LX_37" type="car5" route="route1_2_3" depart="7" departLane = "2" departSpeed="11.180000"/>
	<vehicle id="RX_38" type="car9" route="route1_3_2" depart="7" departLane = "0" departSpeed="11.180000"/>
	<vehicle id="LX_39" type="car8" route="route0_1_2" depart="8" departLane = "2" departSpeed="11.180000"/>
	<vehicle id="LS_40" type="car9" route="route0_2_3" depart="8" departLane = "2" departSpeed="11.180000"/>
	<vehicle id="LX_41" type="car7" route="route0_4_1" depart="8" departLane = "2" departSpeed="11.180000"/>
	<vehicle id="SX_42" type="car9" route="route1_2_4" depart="8" departLane = "1" departSpeed="11.180000"/>
	<vehicle id="LS_43" type="car9" route="route1_4_1" depart="8" departLane = "2" departSpeed="11.180000"/>
	<vehicle id="RX_44" type="car9" route="route0_1_4" depart="9" departLane = "0" departSpeed="11.180000"/>
	<vehicle id="LS_45" type="car6" route="route0_2_3" depart="9" departLane = "2" departSpeed="11.180000"/>
	<vehicle id="RS_46" type="car5" route="route0_4_3" depart="9" departLane = "0" departSpeed="11.180000"/>
	<vehicle id="LX_47" type="car7" route="route1_2_3" depart="9" departLane = "2" departSpeed="11.180000"/>
	<vehicle id="SS_48" type="car6" route="route1_3_1" depart="9" departLane = "1" departSpeed="11.180000"/>
	<vehicle id="SR_49" type="car7" route="route0_1_3" depart="10" departLane = "1" departSpeed="11.180000"/>
	<vehicle id="SX_50" type="car5" route="route0_2_4" depart="10" departLane = "1" departSpeed="11.180000"/>
	<vehicle id="RL_51" type="car9" route="route0_4_3" depart="10" departLane = "0" departSpeed="11.180000"/>
	<vehicle id="LX_52" type="car7" route="route1_2_3" depart="10" departLane = "2" departSpeed="11.180000"/>
	<vehicle id="RX_53" type="car5" route="route1_3_2" depart="10" departLane = "0" departSpeed="11.180000"/>
	<vehicle id="SX_54" type="car6" route="route1_4_2" depart="10" departLane = "1" departSpeed="11.180000"/>
	<vehicle id="LX_55" type="car6" route="route0_1_2" depart="11" departLane = "2" departSpeed="11.180000"/>
	<vehicle id="RX_56" type="car9" route="route0_2_1" depart="11" departLane = "0" departSpeed="11.180000"/>
	<vehicle id="SX_57" type="car7" route="route0_4_2" depart="11" departLane = "1" departSpeed="11.180000"/>
	<vehicle id="RR_58" type="car5" route="route1_2_1" depart="11" departLane = "0" departSpeed="11.180000"/>
	<vehicle id="RX_59" type="car5" route="route1_3_2" depart="11" departLane = "0" departSpeed="11.180000"/>
	<vehicle id="SX_60" type="car7" route="route1_4_2" depart="11" departLane = "1" departSpeed="11.180000"/>
	<vehicle id="RX_61" type="car5" route="route0_1_4" depart="12" departLane = "0" departSpeed="11.180000"/>
	<vehicle id="SX_62" type="car6" route="route0_2_4" depart="12" departLane = "1" departSpeed="11.180000"/>
	<vehicle id="LX_63" type="car5" route="route0_4_1" depart="12" departLane = "2" departSpeed="11.180000"/>
	<vehicle id="RS_64" type="car7" route="route1_2_1" depart="12" departLane = "0" departSpeed="11.180000"/>
	<vehicle id="RX_65" type="car6" route="route1_3_2" depart="12" departLane = "0" departSpeed="11.180000"/>
	<vehicle id="SX_66" type="car7" route="route1_4_2" depart="12" departLane = "1" departSpeed="11.180000"/>
	<vehicle id="SL_67" type="car7" route="route0_1_3" depart="13" departLane = "1" departSpeed="11.180000"/>
	<vehicle id="RX_68" type="car5" route="route0_2_1" depart="13" departLane = "0" departSpeed="11.180000"/>
	<vehicle id="SX_69" type="car8" route="route0_4_2" depart="13" departLane = "1" departSpeed="11.180000"/>
	<vehicle id="SX_70" type="car6" route="route1_2_4" depart="13" departLane = "1" departSpeed="11.180000"/>
	<vehicle id="SL_71" type="car7" route="route1_3_1" depart="13" departLane = "1" departSpeed="11.180000"/>
	<vehicle id="RX_72" type="car9" route="route1_4_3" depart="13" departLane = "0" departSpeed="11.180000"/>
	<vehicle id="SX_73" type="car5" route="route0_4_2" depart="14" departLane = "1" departSpeed="11.180000"/>
	<vehicle id="LX_74" type="car8" route="route1_2_3" depart="14" departLane = "2" departSpeed="11.180000"/>
	<vehicle id="SL_75" type="car6" route="route1_3_1" depart="14" departLane = "1" departSpeed="11.180000"/>
	<vehicle id="SX_76" type="car9" route="route1_4_2" depart="14" departLane = "1" departSpeed="11.180000"/>
	<vehicle id="RX_77" type="car9" route="route0_1_4" depart="15" departLane = "0" departSpeed="11.180000"/>
	<vehicle id="SX_78" type="car9" route="route0_2_4" depart="15" departLane = "1" departSpeed="11.180000"/>
	<vehicle id="RS_79" type="car9" route="route0_4_3" depart="15" departLane = "0" departSpeed="11.180000"/>
	<vehicle id="LX_80" type="car8" route="route1_2_3" depart="15" departLane = "2" departSpeed="11.180000"/>
	<vehicle id="RX_81" type="car7" route="route1_3_2" depart="15" departLane = "0" departSpeed="11.180000"/>
	<vehicle id="RX_82" type="car8" route="route1_4_3" depart="15" departLane = "0" departSpeed="11.180000"/>
	<vehicle id="RX_83" type="car7" route="route0_1_4" depart="16" departLane = "0" departSpeed="11.180000"/>
	<vehicle id="LL_84" type="car6" route="route0_2_3" depart="16" departLane = "2" departSpeed="11.180000"/>
	<vehicle id="RR_85" type="car7" route="route0_4_3" depart="16" departLane = "0" departSpeed="11.180000"/>
	<vehicle id="LX_86" type="car5" route="route1_2_3" depart="16" departLane = "2" departSpeed="11.180000"/>
	<vehicle id="RX_87" type="car7" route="route1_3_2" depart="16" departLane = "0" departSpeed="11.180000"/>
	<vehicle id="RX_88" type="car8" route="route1_4_3" depart="16" departLane = "0" departSpeed="11.180000"/>
	<vehicle id="RX_89" type="car6" route="route0_1_4" depart="17" departLane = "0" departSpeed="11.180000"/>
	<vehicle id="RX_90" type="car5" route="route0_2_1" depart="17" departLane = "0" departSpeed="11.180000"/>
	<vehicle id="LX_91" type="car6" route="route0_4_1" depart="17" departLane = "2" departSpeed="11.180000"/>
	<vehicle id="LX_92" type="car6" route="route1_3_4" depart="17" departLane = "2" departSpeed="11.180000"/>
	<vehicle id="LL_93" type="car9" route="route1_4_1" depart="17" departLane = "2" departSpeed="11.180000"/>
	<vehicle id="LX_94" type="car8" route="route0_1_2" depart="18" departLane = "2" departSpeed="11.180000"/>
	<vehicle id="RX_95" type="car5" route="route0_2_1" depart="18" departLane = "0" departSpeed="11.180000"/>
	<vehicle id="SX_96" type="car8" route="route0_4_2" depart="18" departLane = "1" departSpeed="11.180000"/>
	<vehicle id="SX_97" type="car8" route="route1_2_4" depart="18" departLane = "1" departSpeed="11.180000"/>
	<vehicle id="RX_98" type="car8" route="route1_3_2" depart="18" departLane = "0" departSpeed="11.180000"/>
	<vehicle id="LL_99" type="car8" route="route1_4_1" depart="18" departLane = "2" departSpeed="11.180000"/>
	<vehicle id="SR_100" type="car9" route="route0_1_3" depart="19" departLane = "1" departSpeed="11.180000"/>
	<vehicle id="SX_101" type="car7" route="route0_2_4" depart="19" departLane = "1" departSpeed="11.180000"/>
	<vehicle id="LX_102" type="car6" route="route0_4_1" depart="19" departLane = "2" departSpeed="11.180000"/>
	<vehicle id="RL_103" type="car9" route="route1_2_1" depart="19" departLane = "0" departSpeed="11.180000"/>
	<vehicle id="RX_104" type="car7" route="route1_3_2" depart="19" departLane = "0" departSpeed="11.180000"/>
	<vehicle id="SX_105" type="car7" route="route1_4_2" depart="19" departLane = "1" departSpeed="11.180000"/>
	<vehicle id="RX_106" type="car8" route="route0_1_4" depart="20" departLane = "0" departSpeed="11.180000"/>
	<vehicle id="RS_107" type="car9" route="route0_4_3" depart="20" departLane = "0" departSpeed="11.180000"/>
	<vehicle id="LX_108" type="car9" route="route1_2_3" depart="20" departLane = "2" departSpeed="11.180000"/>
	<vehicle id="LX_109" type="car5" route="route1_3_4" depart="20" departLane = "2" departSpeed="11.180000"/>
	<vehicle id="LL_110" type="car6" route="route1_4_1" depart="20" departLane = "2" departSpeed="11.180000"/>
	<vehicle id="LX_111" type="car9" route="route0_1_2" depart="21" departLane = "2" departSpeed="11.180000"/>
	<vehicle id="LR_112" type="car7" route="route0_2_3" depart="21" departLane = "2" departSpeed="11.180000"/>
	<vehicle id="SX_113" type="car7" route="route0_4_2" depart="21" departLane = "1" departSpeed="11.180000"/>
	<vehicle id="LX_114" type="car7" route="route1_2_3" depart="21" departLane = "2" departSpeed="11.180000"/>
	<vehicle id="LX_115" type="car6" route="route1_3_4" depart="21" departLane = "2" departSpeed="11.180000"/>
	<vehicle id="RX_116" type="car9" route="route1_4_3" depart="21" departLane = "0" departSpeed="11.180000"/>
	<vehicle id="SL_117" type="car8" route="route0_1_3" depart="22" departLane = "1" departSpeed="11.180000"/>
	<vehicle id="LR_118" type="car9" route="route0_2_3" depart="22" departLane = "2" departSpeed="11.180000"/>
	<vehicle id="LX_119" type="car7" route="route0_4_1" depart="22" departLane = "2" departSpeed="11.180000"/>
	<vehicle id="SX_120" type="car5" route="route1_2_4" depart="22" departLane = "1" departSpeed="11.180000"/>
	<vehicle id="RX_121" type="car6" route="route1_3_2" depart="22" departLane = "0" departSpeed="11.180000"/>
	<vehicle id="RX_122" type="car7" route="route1_4_3" depart="22" departLane = "0" departSpeed="11.180000"/>
	<vehicle id="LX_123" type="car9" route="route0_1_2" depart="23" departLane = "2" departSpeed="11.180000"/>
	<vehicle id="SX_124" type="car8" route="route0_2_4" depart="23" departLane = "1" departSpeed="11.180000"/>
	<vehicle id="SX_125" type="car9" route="route0_4_2" depart="23" departLane = "1" departSpeed="11.180000"/>
	<vehicle id="RL_126" type="car5" route="route1_2_1" depart="23" departLane = "0" departSpeed="11.180000"/>
	<vehicle id="LL_127" type="car7" route="route1_4_1" depart="23" departLane = "2" departSpeed="11.180000"/>
	<vehicle id="SS_128" type="car5" route="route0_1_3" depart="24" departLane = "1" departSpeed="11.180000"/>
	<vehicle id="SX_129" type="car7" route="route0_2_4" depart="24" departLane = "1" departSpeed="11.180000"/>
	<vehicle id="LX_130" type="car5" route="route0_4_1" depart="24" departLane = "2" departSpeed="11.180000"/>
	<vehicle id="RS_131" type="car5" route="route1_2_1" depart="24" departLane = "0" departSpeed="11.180000"/>
	<vehicle id="SS_132" type="car5" route="route1_3_1" depart="24" departLane = "1" departSpeed="11.180000"/>
	<vehicle id="RX_133" type="car5" route="route1_4_3" depart="24" departLane = "0" departSpeed="11.180000"/>
	<vehicle id="RX_134" type="car5" route="route0_1_4" depart="25" departLane = "0" departSpeed="11.180000"/>
	<vehicle id="LL_135" type="car9" route="route0_2_3" depart="25" departLane = "2" departSpeed="11.180000"/>
	<vehicle id="SX_136" type="car5" route="route0_4_2" depart="25" departLane = "1" departSpeed="11.180000"/>
	<vehicle id="SX_137" type="car6" route="route1_2_4" depart="25" departLane = "1" departSpeed="11.180000"/>
	<vehicle id="LX_138" type="car5" route="route1_3_4" depart="25" departLane = "2" departSpeed="11.180000"/>
	<vehicle id="RX_139" type="car8" route="route1_4_3" depart="25" departLane = "0" departSpeed="11.180000"/>
	<vehicle id="LX_140" type="car9" route="route0_1_2" depart="26" departLane = "2" departSpeed="11.180000"/>
	<vehicle id="LX_141" type="car7" route="route0_4_1" depart="26" departLane = "2" departSpeed="11.180000"/>
	<vehicle id="RL_142" type="car7" route="route1_2_1" depart="26" departLane = "0" departSpeed="11.180000"/>
	<vehicle id="SS_143" type="car7" route="route1_3_1" depart="26" departLane = "1" departSpeed="11.180000"/>
	<vehicle id="RX_144" type="car5" route="route1_4_3" depart="26" departLane = "0" departSpeed="11.180000"/>
	<vehicle id="LX_145" type="car7" route="route0_1_2" depart="27" departLane = "2" departSpeed="11.180000"/>
	<vehicle id="LR_146" type="car7" route="route0_2_3" depart="27" departLane = "2" departSpeed="11.180000"/>
	<vehicle id="RR_147" type="car7" route="route0_4_3" depart="27" departLane = "0" departSpeed="11.180000"/>
	<vehicle id="RL_148" type="car5" route="route1_2_1" depart="27" departLane = "0" departSpeed="11.180000"/>
	<vehicle id="LS_149" type="car6" route="route0_2_3" depart="28" departLane = "2" departSpeed="11.180000"/>
	<vehicle id="RR_150" type="car9" route="route0_4_3" depart="28" departLane = "0" departSpeed="11.180000"/>
	<vehicle id="SX_151" type="car8" route="route1_2_4" depart="28" departLane = "1" departSpeed="11.180000"/>
	<vehicle id="RX_152" type="car7" route="route1_3_2" depart="28" departLane = "0" departSpeed="11.180000"/>
	<vehicle id="SX_153" type="car6" route="route1_4_2" depart="28" departLane = "1" departSpeed="11.180000"/>
	<vehicle id="SS_154" type="car6" route="route0_1_3" depart="29" departLane = "1" departSpeed="11.180000"/>
	<vehicle id="SX_155" type="car7" route="route0_2_4" depart="29" departLane = "1" departSpeed="11.180000"/>
	<vehicle id="SX_156" type="car8" route="route0_4_2" depart="29" departLane = "1" departSpeed="11.180000"/>
	<vehicle id="RR_157" type="car9" route="route1_2_1" depart="29" departLane = "0" departSpeed="11.180000"/>
	<vehicle id="SR_158" type="car6" route="route1_3_1" depart="29" departLane = "1" departSpeed="11.180000"/>
	<vehicle id="LL_159" type="car7" route="route1_4_1" depart="29" departLane = "2" departSpeed="11.180000"/>
	<vehicle id="LX_160" type="car6" route="route0_1_2" depart="30" departLane = "2" departSpeed="11.180000"/>
	<vehicle id="SX_161" type="car9" route="route0_2_4" depart="30" departLane = "1" departSpeed="11.180000"/>
	<vehicle id="LX_162" type="car7" route="route0_4_1" depart="30" departLane = "2" departSpeed="11.180000"/>
	<vehicle id="RR_163" type="car5" route="route1_2_1" depart="30" departLane = "0" departSpeed="11.180000"/>
	<vehicle id="LX_164" type="car9" route="route1_3_4" depart="30" departLane = "2" departSpeed="11.180000"/>
	<vehicle id="LL_165" type="car5" route="route1_4_1" depart="30" departLane = "2" departSpeed="11.180000"/>
	<vehicle id="LX_166" type="car5" route="route0_1_2" depart="31" departLane = "2" departSpeed="11.180000"/>
	<vehicle id="RX_167" type="car8" route="route0_2_1" depart="31" departLane = "0" departSpeed="11.180000"/>
	<vehicle id="SX_168" type="car9" route="route0_4_2" depart="31" departLane = "1" departSpeed="11.180000"/>
	<vehicle id="RS_169" type="car5" route="route1_2_1" depart="31" departLane = "0" departSpeed="11.180000"/>
	<vehicle id="RX_170" type="car5" route="route1_3_2" depart="31" departLane = "0" departSpeed="11.180000"/>
	<vehicle id="RX_171" type="car7" route="route1_4_3" depart="31" departLane = "0" departSpeed="11.180000"/>
	<vehicle id="RX_172" type="car6" route="route0_1_4" depart="32" departLane = "0" departSpeed="11.180000"/>
	<vehicle id="SX_173" type="car7" route="route0_2_4" depart="32" departLane = "1" departSpeed="11.180000"/>
	<vehicle id="SX_174" type="car6" route="route0_4_2" depart="32" departLane = "1" departSpeed="11.180000"/>
	<vehicle id="RL_175" type="car6" route="route1_2_1" depart="32" departLane = "0" departSpeed="11.180000"/>
	<vehicle id="SX_176" type="car7" route="route1_4_2" depart="32" departLane = "1" departSpeed="11.180000"/>
	<vehicle id="SL_177" type="car9" route="route0_1_3" depart="33" departLane = "1" departSpeed="11.180000"/>
	<vehicle id="SX_178" type="car9" route="route0_2_4" depart="33" departLane = "1" departSpeed="11.180000"/>
	<vehicle id="SX_179" type="car6" route="route0_4_2" depart="33" departLane = "1" departSpeed="11.180000"/>
	<vehicle id="RL_180" type="car5" route="route1_2_1" depart="33" departLane = "0" departSpeed="11.180000"/>
	<vehicle id="RX_181" type="car9" route="route1_3_2" depart="33" departLane = "0" departSpeed="11.180000"/>
	<vehicle id="SX_182" type="car9" route="route1_4_2" depart="33" departLane = "1" departSpeed="11.180000"/>
	<vehicle id="LX_183" type="car6" route="route0_1_2" depart="34" departLane = "2" departSpeed="11.180000"/>
	<vehicle id="RX_184" type="car8" route="route0_2_1" depart="34" departLane = "0" departSpeed="11.180000"/>
	<vehicle id="SX_185" type="car5" route="route0_4_2" depart="34" departLane = "1" departSpeed="11.180000"/>
	<vehicle id="LX_186" type="car6" route="route1_2_3" depart="34" departLane = "2" departSpeed="11.180000"/>
	<vehicle id="SR_187" type="car5" route="route1_3_1" depart="34" departLane = "1" departSpeed="11.180000"/>
	<vehicle id="RX_188" type="car8" route="route1_4_3" depart="34" departLane = "0" departSpeed="11.180000"/>
	<vehicle id="LX_189" type="car9" route="route0_1_2" depart="35" departLane = "2" departSpeed="11.180000"/>
	<vehicle id="RX_190" type="car8" route="route0_2_1" depart="35" departLane = "0" departSpeed="11.180000"/>
	<vehicle id="SX_191" type="car8" route="route0_4_2" depart="35" departLane = "1" departSpeed="11.180000"/>
	<vehicle id="RS_192" type="car7" route="route1_2_1" depart="35" departLane = "0" departSpeed="11.180000"/>
	<vehicle id="RX_193" type="car8" route="route1_3_2" depart="35" departLane = "0" departSpeed="11.180000"/>
	<vehicle id="SX_194" type="car8" route="route1_4_2" depart="35" departLane = "1" departSpeed="11.180000"/>
	<vehicle id="SX_195" type="car7" route="route0_2_4" depart="36" departLane = "1" departSpeed="11.180000"/>
	<vehicle id="LX_196" type="car9" route="route0_4_1" depart="36" departLane = "2" departSpeed="11.180000"/>
	<vehicle id="SX_197" type="car7" route="route1_2_4" depart="36" departLane = "1" departSpeed="11.180000"/>
	<vehicle id="RX_198" type="car9" route="route1_4_3" depart="36" departLane = "0" departSpeed="11.180000"/>
	<vehicle id="RX_199" type="car9" route="route0_1_4" depart="37" departLane = "0" departSpeed="11.180000"/>
	<vehicle id="RX_200" type="car8" route="route0_2_1" depart="37" departLane = "0" departSpeed="11.180000"/>
	<vehicle id="RR_201" type="car9" route="route0_4_3" depart="37" departLane = "0" departSpeed="11.180000"/>
	<vehicle id="LX_202" type="car8" route="route1_2_3" depart="37" departLane = "2" departSpeed="11.180000"/>
	<vehicle id="RX_203" type="car6" route="route1_4_3" depart="37" departLane = "0" departSpeed="11.180000"/>
	<vehicle id="SS_204" type="car8" route="route0_1_3" depart="38" departLane = "1" departSpeed="11.180000"/>
	<vehicle id="SX_205" type="car6" route="route0_2_4" depart="38" departLane = "1" departSpeed="11.180000"/>
	<vehicle id="SX_206" type="car7" route="route0_4_2" depart="38" departLane = "1" departSpeed="11.180000"/>
	<vehicle id="LX_207" type="car7" route="route1_2_3" depart="38" departLane = "2" departSpeed="11.180000"/>
	<vehicle id="SX_208" type="car5" route="route1_4_2" depart="38" departLane = "1" departSpeed="11.180000"/>
	<vehicle id="SR_209" type="car7" route="route0_1_3" depart="39" departLane = "1" departSpeed="11.180000"/>
	<vehicle id="RX_210" type="car6" route="route0_2_1" depart="39" departLane = "0" departSpeed="11.180000"/>
	<vehicle id="LX_211" type="car7" route="route0_4_1" depart="39" departLane = "2" departSpeed="11.180000"/>
	<vehicle id="SX_212" type="car7" route="route1_2_4" depart="39" departLane = "1" departSpeed="11.180000"/>
	<vehicle id="SR_213" type="car8" route="route1_3_1" depart="39" departLane = "1" departSpeed="11.180000"/>
	<vehicle id="RX_214" type="car5" route="route1_4_3" depart="39" departLane = "0" departSpeed="11.180000"/>
	<vehicle id="RX_215" type="car9" route="route0_1_4" depart="40" departLane = "0" departSpeed="11.180000"/>
	<vehicle id="SX_216" type="car6" route="route0_2_4" depart="40" departLane = "1" departSpeed="11.180000"/>
	<vehicle id="LX_217" type="car8" route="route0_4_1" depart="40" departLane = "2" departSpeed="11.180000"/>
	<vehicle id="LX_218" type="car9" route="route1_2_3" depart="40" departLane = "2" departSpeed="11.180000"/>
	<vehicle id="RX_219" type="car5" route="route1_3_2" depart="40" departLane = "0" departSpeed="11.180000"/>
	<vehicle id="SX_220" type="car8" route="route1_4_2" depart="40" departLane = "1" departSpeed="11.180000"/>
	<vehicle id="RX_221" type="car7" route="route0_1_4" depart="41" departLane = "0" departSpeed="11.180000"/>
	<vehicle id="SX_222" type="car6" route="route0_2_4" depart="41" departLane = "1" departSpeed="11.180000"/>
	<vehicle id="RS_223" type="car5" route="route0_4_3" depart="41" departLane = "0" departSpeed="11.180000"/>
	<vehicle id="RS_224" type="car5" route="route1_2_1" depart="41" departLane = "0" departSpeed="11.180000"/>
	<vehicle id="SS_225" type="car5" route="route1_3_1" depart="41" departLane = "1" departSpeed="11.180000"/>
	<vehicle id="LS_226" type="car5" route="route1_4_1" depart="41" departLane = "2" departSpeed="11.180000"/>
	<vehicle id="LR_227" type="car9" route="route0_2_3" depart="42" departLane = "2" departSpeed="11.180000"/>
	<vehicle id="LX_228" type="car5" route="route0_4_1" depart="42" departLane = "2" departSpeed="11.180000"/>
	<vehicle id="RR_229" type="car6" route="route1_2_1" depart="42" departLane = "0" departSpeed="11.180000"/>
	<vehicle id="RX_230" type="car8" route="route1_4_3" depart="42" departLane = "0" departSpeed="11.180000"/>
	<vehicle id="SL_231" type="car7" route="route0_1_3" depart="43" departLane = "1" departSpeed="11.180000"/>
	<vehicle id="SX_232" type="car9" route="route0_2_4" depart="43" departLane = "1" departSpeed="11.180000"/>
	<vehicle id="SL_233" type="car9" route="route1_3_1" depart="43" departLane = "1" departSpeed="11.180000"/>
	<vehicle id="SX_234" type="car5" route="route1_4_2" depart="43" departLane = "1" departSpeed="11.180000"/>
	<vehicle id="LX_235" type="car7" route="route0_1_2" depart="44" departLane = "2" departSpeed="11.180000"/>
	<vehicle id="RX_236" type="car9" route="route0_2_1" depart="44" departLane = "0" departSpeed="11.180000"/>
	<vehicle id="RL_237" type="car6" route="route0_4_3" depart="44" departLane = "0" departSpeed="11.180000"/>
	<vehicle id="LX_238" type="car9" route="route1_2_3" depart="44" departLane = "2" departSpeed="11.180000"/>
	<vehicle id="LX_239" type="car9" route="route1_3_4" depart="44" departLane = "2" departSpeed="11.180000"/>
	<vehicle id="SX_240" type="car7" route="route1_4_2" depart="44" departLane = "1" departSpeed="11.180000"/>
	<vehicle id="RX_241" type="car7" route="route0_1_4" depart="45" departLane = "0" departSpeed="11.180000"/>
	<vehicle id="LL_242" type="car6" route="route0_2_3" depart="45" departLane = "2" departSpeed="11.180000"/>
	<vehicle id="RS_243" type="car9" route="route0_4_3" depart="45" departLane = "0" departSpeed="11.180000"/>
	<vehicle id="SX_244" type="car8" route="route1_2_4" depart="45" departLane = "1" departSpeed="11.180000"/>
	<vehicle id="LX_245" type="car6" route="route1_3_4" depart="45" departLane = "2" departSpeed="11.180000"/>
	<vehicle id="LS_246" type="car8" route="route1_4_1" depart="45" departLane = "2" departSpeed="11.180000"/>
	<vehicle id="SL_247" type="car5" route="route0_1_3" depart="46" departLane = "1" departSpeed="11.180000"/>
	<vehicle id="SX_248" type="car9" route="route0_2_4" depart="46" departLane = "1" departSpeed="11.180000"/>
	<vehicle id="SX_249" type="car6" route="route0_4_2" depart="46" departLane = "1" departSpeed="11.180000"/>
	<vehicle id="SX_250" type="car5" route="route1_2_4" depart="46" departLane = "1" departSpeed="11.180000"/>
	<vehicle id="LR_251" type="car9" route="route1_4_1" depart="46" departLane = "2" departSpeed="11.180000"/>
	<vehicle id="LX_252" type="car9" route="route0_1_2" depart="47" departLane = "2" departSpeed="11.180000"/>
	<vehicle id="SX_253" type="car6" route="route0_2_4" depart="47" departLane = "1" departSpeed="11.180000"/>
	<vehicle id="RL_254" type="car7" route="route0_4_3" depart="47" departLane = "0" departSpeed="11.180000"/>
	<vehicle id="LX_255" type="car7" route="route1_2_3" depart="47" departLane = "2" departSpeed="11.180000"/>
	<vehicle id="RX_256" type="car7" route="route1_3_2" depart="47" departLane = "0" departSpeed="11.180000"/>
	<vehicle id="RX_257" type="car7" route="route1_4_3" depart="47" departLane = "0" departSpeed="11.180000"/>
	<vehicle id="SR_258" type="car8" route="route0_1_3" depart="48" departLane = "1" departSpeed="11.180000"/>
	<vehicle id="RX_259" type="car7" route="route0_2_1" depart="48" departLane = "0" departSpeed="11.180000"/>
	<vehicle id="RR_260" type="car8" route="route0_4_3" depart="48" departLane = "0" departSpeed="11.180000"/>