<routes>

	<vType id="car5" accel="100.0" decel="100.0" sigma="0.0" length="5" minGap="3.000000" maxSpeed="11.180000" tau="0.100000" carFollowModel="CACC" color="255,255,255"/>
	<vType id="car6" accel="100.0" decel="100.0" sigma="0.0" length="6" minGap="3.000000" maxSpeed="11.180000" tau="0.100000" carFollowModel="CACC" color="255,255,255"/>
	<vType id="car7" accel="100.0" decel="100.0" sigma="0.0" length="7" minGap="3.000000" maxSpeed="11.180000" tau="0.100000" carFollowModel="CACC" color="255,255,255"/>
	<vType id="car8" accel="100.0" decel="100.0" sigma="0.0" length="8" minGap="3.000000" maxSpeed="11.180000" tau="0.100000" carFollowModel="CACC" color="255,255,255"/>
	<vType id="car9" accel="100.0" decel="100.0" sigma="0.0" length="9" minGap="3.000000" maxSpeed="11.180000" tau="0.100000" carFollowModel="CACC" color="255,255,255"/>

	<route id="route0_1_2" edges=" 001_001_1"/>
	<route id="route0_1_3" edges=" 001_001_1"/>
	<route id="route0_1_4" edges=" 001_001_1"/>
	<route id="route0_2_1" edges=" 001_001_2"/>
	<route id="route0_2_3" edges=" 001_001_2"/>
	<route id="route0_2_4" edges=" 001_001_2"/>
	<route id="route0_3_1" edges=" 001_001_3"/>
	<route id="route0_3_2" edges=" 001_001_3"/>
	<route id="route0_3_4" edges=" 001_001_3"/>
	<route id="route0_4_1" edges=" 001_001_4"/>
	<route id="route0_4_2" edges=" 001_001_4"/>
	<route id="route0_4_3" edges=" 001_001_4"/>
	<route id="route1_1_2" edges=" 002_001_1"/>
	<route id="route1_1_3" edges=" 002_001_1"/>
	<route id="route1_1_4" edges=" 002_001_1"/>
	<route id="route1_2_1" edges=" 002_001_2"/>
	<route id="route1_2_3" edges=" 002_001_2"/>
	<route id="route1_2_4" edges=" 002_001_2"/>
	<route id="route1_3_1" edges=" 002_001_3"/>
	<route id="route1_3_2" edges=" 002_001_3"/>
	<route id="route1_3_4" edges=" 002_001_3"/>
	<route id="route1_4_1" edges=" 002_001_4"/>
	<route id="route1_4_2" edges=" 002_001_4"/>
	<route id="route1_4_3" edges=" 002_001_4"/>

	<vehicle id="SR_0" type="car8" route="route0_1_3" depart="0" departLane = "1" departSpeed="11.180000"/>
	<vehicle id="SX_1" type="car6" route="route0_2_4" depart="0" departLane = "1" departSpeed="11.180000"/>
	<vehicle id="SX_2" type="car7" route="route0_4_2" depart="0" departLane = "1" departSpeed="11.180000"/>
	<vehicle id="SX_3" type="car6" route="route1_2_4" depart="0" departLane = "1" departSpeed="11.180000"/>
	<vehicle id="SS_4" type="car7" route="route1_3_1" depart="0" departLane = "1" departSpeed="11.180000"/>
	<vehicle id="RX_5" type="car6" route="route0_1_4" depart="1" departLane = "0" departSpeed="11.180000"/>
	<vehicle id="RX_6" type="car8" route="route0_2_1" depart="1" departLane = "0" departSpeed="11.180000"/>
	<vehicle id="SX_7" type="car9" route="route0_4_2" depart="1" departLane = "1" departSpeed="11.180000"/>
	<vehicle id="RX_8" type="car9" route="route1_3_2" depart="1" departLane = "0" departSpeed="11.180000"/>
	<vehicle id="SX_9" type="car8" route="route1_4_2" depart="1" departLane = "1" departSpeed="11.180000"/>
	<vehicle id="SR_10" type="car8" route="route0_1_3" depart="2" departLane = "1" departSpeed="11.180000"/>
	<vehicle id="LL_11" type="car5" route="route0_2_3" depart="2" departLane = "2" departSpeed="11.180000"/>
	<vehicle id="LX_12" type="car8" route="route0_4_1" depart="2" departLane = "2" departSpeed="11.180000"/>
	<vehicle id="RX_13" type="car9" route="route1_4_3" depart="2" departLane = "0" departSpeed="11.180000"/>
	<vehicle id="RX_14" type="car9" route="route0_1_4" depart="3" departLane = "0" departSpeed="11.180000"/>
	<vehicle id="RX_15" type="car5" route="route0_2_1" depart="3" departLane = "0" departSpeed="11.180000"/>
	<vehicle id="RR_16" type="car6" route="route0_4_3" depart="3" departLane = "0" departSpeed="11.180000"/>
	<vehicle id="SX_17" type="car8" route="route1_2_4" depart="3" departLane = "1" departSpeed="11.180000"/>
	<vehicle id="RX_18" type="car7" route="route1_3_2" depart="3" departLane = "0" departSpeed="11.180000"/>
	<vehicle id="LS_19" type="car6" route="route1_4_1" depart="3" departLane = "2" departSpeed="11.180000"/>
	<vehicle id="LX_20" type="car9" route="route0_1_2" depart="4" departLane = "2" departSpeed="11.180000"/>
	<vehicle id="RX_21" type="car7" route="route0_2_1" depart="4" departLane = "0" departSpeed="11.180000"/>
	<vehicle id="SX_22" type="car9" route="route0_4_2" depart="4" departLane = "1" departSpeed="11.180000"/>
	<vehicle id="SX_23" type="car7" route="route1_2_4" depart="4" departLane = "1" departSpeed="11.180000"/>
	<vehicle id="LX_24" type="car6" route="route1_3_4" depart="4" departLane = "2" departSpeed="11.180000"/>
	<vehicle id="RX_25" type="car9" route="route1_4_3" depart="4" departLane = "0" departSpeed="11.180000"/>
	<vehicle id="SS_26" type="car7" route="route0_1_3" depart="5" departLane = "1" departSpeed="11.180000"/>
	<vehicle id="LS_27" type="car7" route="route0_2_3" depart="5" departLane = "2" departSpeed="11.180000"/>
	<vehicle id="SX_28" type="car7" route="route0_4_2" depart="5" departLane = "1" departSpeed="11.180000"/>
	<vehicle id="SR_29" type="car7" route="route1_3_1" depart="5" departLane = "1" departSpeed="11.180000"/>
	<vehicle id="RX_30" type="car7" route="route1_4_3" depart="5" departLane = "0" departSpeed="11.180000"/>
	<vehicle id="SS_31" type="car7" route="route0_1_3" depart="6" departLane = "1" departSpeed="11.180000"/>
	<vehicle id="RX_32" type="car5" route="route0_2_1" depart="6" departLane = "0" departSpeed="11.180000"/>
	<vehicle id="LX_33" type="car8" route="route0_4_1" depart="6" departLane = "2" departSpeed="11.180000"/>
	<vehicle id="RR_34" type="car7" route="route1_2_1" depart="6" departLane = "0" departSpeed="11.180000"/>
	<vehicle id="LX_35" type="car8" route="route1_3_4" depart="6" departLane = "2" departSpeed="11.180000"/>
	<vehicle id="LL_36" type="car9" route="route1_4_1" depart="6" departLane = "2" departSpeed="11.180000"/>
	<vehicle id="SS_37" type="car9" route="route0_1_3" depart="7" departLane = "1" departSpeed="11.180000"/>
	<vehicle id="SX_38" type="car6" route="route0_4_2" depart="7" departLane = "1" departSpeed="11.180000"/>
	<vehicle id="RL_39" type="car6" route="route1_2_1" depart="7" departLane = "0" departSpeed="11.180000"/>
	<vehicle id="LX_40" type="car9" route="route1_3_4" depart="7" departLane = "2" departSpeed="11.180000"/>
	<vehicle id="LS_41" type="car7" route="route1_4_1" depart="7" departLane = "2" departSpeed="11.180000"/>
	<vehicle id="LS_42" type="car7" route="route0_2_3" depart="8" departLane = "2" departSpeed="11.180000"/>
	<vehicle id="LX_43" type="car9" route="route0_4_1" depart="8" departLane = "2" departSpeed="11.180000"/>
	<vehicle id="LX_44" type="car5" route="route1_3_4" depart="8" departLane = "2" departSpeed="11.180000"/>
	<vehicle id="LS_45" type="car7" route="route1_4_1" depart="8" departLane = "2" departSpeed="11.180000"/>
	<vehicle id="LX_46" type="car9" route="route0_1_2" depart="9" departLane = "2" departSpeed="11.180000"/>
	<vehicle id="LS_47" type="car8" route="route0_2_3" depart="9" departLane = "2" departSpeed="11.180000"/>
	<vehicle id="RL_48" type="car6" route="route0_4_3" depart="9" departLane = "0" departSpeed="11.180000"/>
	<vehicle id="RL_49" type="car6" route="route1_2_1" depart="9" departLane = "0" departSpeed="11.180000"/>
	<vehicle id="RX_50" type="car5" route="route1_3_2" depart="9" departLane = "0" departSpeed="11.180000"/>
	<vehicle id="SX_51" type="car8" route="route1_4_2" depart="9" departLane = "1" departSpeed="11.180000"/>
	<vehicle id="RX_52" type="car7" route="route0_1_4" depart="10" departLane = "0" departSpeed="11.180000"/>
	<vehicle id="SX_53" type="car8" route="route0_4_2" depart="10" departLane = "1" departSpeed="11.180000"/>
	<vehicle id="RL_54" type="car8" route="route1_2_1" depart="10" departLane = "0" departSpeed="11.180000"/>
	<vehicle id="LX_55" type="car7" route="route1_3_4" depart="10" departLane = "2" departSpeed="11.180000"/>
	<vehicle id="LL_56" type="car6" route="route1_4_1" depart="10" departLane = "2" departSpeed="11.180000"/>
	<vehicle id="LL_57" type="car5" route="route0_2_3" depart="11" departLane = "2" departSpeed="11.180000"/>
	<vehicle id="SX_58" type="car5" route="route1_2_4" depart="11" departLane = "1" departSpeed="11.180000"/>
	<vehicle id="LX_59" type="car9" route="route1_3_4" depart="11" departLane = "2" departSpeed="11.180000"/>
	<vehicle id="RX_60" type="car7" route="route0_1_4" depart="12" departLane = "0" departSpeed="11.180000"/>
	<vehicle id="SX_61" type="car6" route="route0_2_4" depart="12" departLane = "1" departSpeed="11.180000"/>
	<vehicle id="LX_62" type="car8" route="route0_4_1" depart="12" departLane = "2" departSpeed="11.180000"/>
	<vehicle id="SX_63" type="car5" route="route1_2_4" depart="12" departLane = "1" departSpeed="11.180000"/>
	<vehicle id="LX_64" type="car5" route="route1_3_4" depart="12" departLane = "2" departSpeed="11.180000"/>
	<vehicle id="SX_65" type="car9" route="route1_4_2" depart="12" departLane = "1" departSpeed="11.180000"/>
	<vehicle id="RX_66" type="car6" route="route0_1_4" depart="13" departLane = "0" departSpeed="11.180000"/>
	<vehicle id="LR_67" type="car9" route="route0_2_3" depart="13" departLane = "2" departSpeed="11.180000"/>
	<vehicle id="LX_68" type="car8" route="route1_2_3" depart="13" departLane = "2" departSpeed="11.180000"/>
	<vehicle id="RX_69" type="car8" route="route1_4_3" depart="13" departLane = "0" departSpeed="11.180000"/>
	<vehicle id="LX_70" type="car6" route="route0_1_2" depart="14" departLane = "2" departSpeed="11.180000"/>
	<vehicle id="LS_71" type="car7" route="route0_2_3" depart="14" departLane = "2" departSpeed="11.180000"/>
	<vehicle id="LX_72" type="car5" route="route0_4_1" depart="14" departLane = "2" departSpeed="11.180000"/>
	<vehicle id="RL_73" type="car7" route="route1_2_1" depart="14" departLane = "0" departSpeed="11.180000"/>
	<vehicle id="RX_74" type="car7" route="route1_3_2" depart="14" departLane = "0" departSpeed="11.180000"/>
	<vehicle id="LR_75" type="car6" route="route1_4_1" depart="14" departLane = "2" departSpeed="11.180000"/>
	<vehicle id="RX_76" type="car6" route="route0_1_4" depart="15" departLane = "0" departSpeed="11.180000"/>
	<vehicle id="LS_77" type="car5" route="route0_2_3" depart="15" departLane = "2" departSpeed="11.180000"/>
	<vehicle id="SX_78" type="car6" route="route0_4_2" depart="15" departLane = "1" departSpeed="11.180000"/>
	<vehicle id="SX_79" type="car6" route="route1_2_4" depart="15" departLane = "1" departSpeed="11.180000"/>
	<vehicle id="LX_80" type="car9" route="route1_3_4" depart="15" departLane = "2" departSpeed="11.180000"/>
	<vehicle id="RX_81" type="car6" route="route1_4_3" depart="15" departLane = "0" departSpeed="11.180000"/>
	<vehicle id="SR_82" type="car9" route="route0_1_3" depart="16" departLane = "1" departSpeed="11.180000"/>
	<vehicle id="RX_83" type="car8" route="route0_2_1" depart="16" departLane = "0" departSpeed="11.180000"/>
	<vehicle id="LX_84" type="car6" route="route0_4_1" depart="16" departLane = "2" departSpeed="11.180000"/>
	<vehicle id="RS_85" type="car8" route="route1_2_1" depart="16" departLane = "0" departSpeed="11.180000"/>
	<vehicle id="RX_86" type="car5" route="route1_3_2" depart="16" departLane = "0" departSpeed="11.180000"/>
	<vehicle id="SX_87" type="car6" route="route1_4_2" depart="16" departLane = "1" departSpeed="11.180000"/>
	<vehicle id="RX_88" type="car6" route="route0_1_4" depart="17" departLane = "0" departSpeed="11.180000"/>
	<vehicle id="RX_89" type="car7" route="route0_2_1" depart="17" departLane = "0" departSpeed="11.180000"/>
	<vehicle id="RS_90" type="car7" route="route0_4_3" depart="17" departLane = "0" departSpeed="11.180000"/>
	<vehicle id="RS_91" type="car7" route="route1_2_1" depart="17" departLane = "0" departSpeed="11.180000"/>
	<vehicle id="SS_92" type="car5" route="route1_3_1" depart="17" departLane = "1" departSpeed="11.180000"/>
	<vehicle id="LL_93" type="car6" route="route1_4_1" depart="17" departLane = "2" departSpeed="11.180000"/>
	<vehicle id="SL_94" type="car7" route="route0_1_3" depart="18" departLane = "1" departSpeed="11.180000"/>
	<vehicle id="SX_95" type="car7" route="route0_2_4" depart="18" departLane = "1" departSpeed="11.180000"/>
	<vehicle id="SX_96" type="car9" route="route0_4_2" depart="18" departLane = "1" departSpeed="11.180000"/>
	<vehicle id="LX_97" type="car6" route="route1_2_3" depart="18" departLane = "2" departSpeed="11.180000"/>
	<vehicle id="LX_98" type="car9" route="route1_3_4" depart="18" departLane = "2" departSpeed="11.180000"/>
	<vehicle id="SX_99" type="car9" route="route1_4_2" depart="18" departLane = "1" departSpeed="11.180000"/>
	<vehicle id="SS_100" type="car9" route="route0_1_3" depart="19" departLane = "1" departSpeed="11.180000"/>
	<vehicle id="SX_101" type="car5" route="route0_2_4" depart="19" departLane = "1" departSpeed="11.180000"/>
	<vehicle id="SX_102" type="car9" route="route0_4_2" depart="19" departLane = "1" departSpeed="11.180000"/>
	<vehicle id="SX_103" type="car8" route="route1_2_4" depart="19" departLane = "1" departSpeed="11.180000"/>
	<vehicle id="RX_104" type="car6" route="route1_3_2" depart="19" departLane = "0" departSpeed="11.180000"/>
	<vehicle id="SX_105" type="car5" route="route1_4_2" depart="19" departLane = "1" departSpeed="11.180000"/>
	<vehicle id="SR_106" type="car7" route="route0_1_3" depart="20" departLane = "1" departSpeed="11.180000"/>
	<vehicle id="RX_107" type="car5" route="route0_2_1" depart="20" departLane = "0" departSpeed="11.180000"/>
	<vehicle id="RL_108" type="car9" route="route0_4_3" depart="20" departLane = "0" departSpeed="11.180000"/>
	<vehicle id="RR_109" type="car9" route="route1_2_1" depart="20" departLane = "0" departSpeed="11.180000"/>
	<vehicle id="RX_110" type="car9" route="route1_3_2" depart="20" departLane = "0" departSpeed="11.180000"/>
	<vehicle id="LR_111" type="car5" route="route1_4_1" depart="20" departLane = "2" departSpeed="11.180000"/>
	<vehicle id="LX_112" type="car7" route="route0_1_2" depart="21" departLane = "2" departSpeed="11.180000"/>
	<vehicle id="SX_113" type="car9" route="route0_2_4" depart="21" departLane = "1" departSpeed="11.180000"/>
	<vehicle id="LX_114" type="car7" route="route0_4_1" depart="21" departLane = "2" departSpeed="11.180000"/>
	<vehicle id="RR_115" type="car6" route="route1_2_1" depart="21" departLane = "0" departSpeed="11.180000"/>
	<vehicle id="SS_116" type="car6" route="route1_3_1" depart="21" departLane = "1" departSpeed="11.180000"/>
	<vehicle id="LR_117" type="car5" route="route1_4_1" depart="21" departLane = "2" departSpeed="11.180000"/>
	<vehicle id="SR_118" type="car7" route="route0_1_3" depart="22" departLane = "1" departSpeed="11.180000"/>
	<vehicle id="RX_119" type="car8" route="route1_3_2" depart="22" departLane = "0" departSpeed="11.180000"/>
	<vehicle id="RX_120" type="car8" route="route1_4_3" depart="22" departLane = "0" departSpeed="11.180000"/>
	<vehicle id="RX_121" type="car9" route="route0_1_4" depart="23" departLane = "0" departSpeed="11.180000"/>
	<vehicle id="LS_122" type="car6" route="route0_2_3" depart="23" departLane = "2" departSpeed="11.180000"/>
	<vehicle id="RL_123" type="car6" route="route0_4_3" depart="23" departLane = "0" departSpeed="11.180000"/>
	<vehicle id="SX_124" type="car5" route="route1_2_4" depart="23" departLane = "1" departSpeed="11.180000"/>
	<vehicle id="LX_125" type="car6" route="route1_3_4" depart="23" departLane = "2" departSpeed="11.180000"/>
	<vehicle id="LL_126" type="car8" route="route1_4_1" depart="23" departLane = "2" departSpeed="11.180000"/>
	<vehicle id="RX_127" type="car8" route="route0_1_4" depart="24" departLane = "0" departSpeed="11.180000"/>
	<vehicle id="LS_128" type="car5" route="route0_2_3" depart="24" departLane = "2" departSpeed="11.180000"/>
	<vehicle id="RR_129" type="car6" route="route1_2_1" depart="24" departLane = "0" departSpeed="11.180000"/>
	<vehicle id="LX_130" type="car6" route="route1_3_4" depart="24" departLane = "2" departSpeed="11.180000"/>
	<vehicle id="LS_131" type="car6" route="route1_4_1" depart="24" departLane = "2" departSpeed="11.180000"/>
	<vehicle id="SL_132" type="car5" route="route0_1_3" depart="25" departLane = "1" departSpeed="11.180000"/>
	<vehicle id="RX_133" type="car5" route="route0_2_1" depart="25" departLane = "0" departSpeed="11.180000"/>
	<vehicle id="SX_134" type="car6" route="route0_4_2" depart="25" departLane = "1" departSpeed="11.180000"/>
	<vehicle id="SX_135" type="car5" route="route1_2_4" depart="25" departLane = "1" departSpeed="11.180000"/>
	<vehicle id="SX_136" type="car9" route="route1_4_2" depart="25" departLane = "1" departSpeed="11.180000"/>
	<vehicle id="RX_137" type="car7" route="route0_2_1" depart="26" departLane = "0" departSpeed="11.180000"/>
	<vehicle id="LX_138" type="car7" route="route0_4_1" depart="26" departLane = "2" departSpeed="11.180000"/>
	<vehicle id="SX_139" type="car8" route="route1_2_4" depart="26" departLane = "1" departSpeed="11.180000"/>
	<vehicle id="LX_140" type="car9" route="route1_3_4" depart="26" departLane = "2" departSpeed="11.180000"/>
	<vehicle id="LR_141" type="car6" route="route1_4_1" depart="26" departLane = "2" departSpeed="11.180000"/>
	<vehicle id="RX_142" type="car5" route="route0_2_1" depart="27" departLane = "0" departSpeed="11.180000"/>
	<vehicle id="SX_143" type="car8" route="route0_4_2" depart="27" departLane = "1" departSpeed="11.180000"/>
	<vehicle id="LX_144" type="car5" route="route1_2_3" depart="27" departLane = "2" departSpeed="11.180000"/>
	<vehicle id="LX_145" type="car7" route="route1_3_4" depart="27" departLane = "2" departSpeed="11.180000"/>
	<vehicle id="LS_146" type="car7" route="route1_4_1" depart="27" departLane = "2" departSpeed="11.180000"/>
	<vehicle id="LX_147" type="car8" route="route0_1_2" depart="28" departLane = "2" departSpeed="11.180000"/>
	<vehicle id="RX_148" type="car6" route="route0_2_1" depart="28" departLane = "0" departSpeed="11.180000"/>
	<vehicle id="SX_149" type="car8" route="route1_2_4" depart="28" departLane = "1" departSpeed="11.180000"/>
	<vehicle id="LX_150" type="car6" route="route1_3_4" depart="28" departLane = "2" departSpeed="11.180000"/>
	<vehicle id="LL_151" type="car9" route="route1_4_1" depart="28" departLane = "2" departSpeed="11.180000"/>
	<vehicle id="RX_152" type="car9" route="route0_1_4" depart="29" departLane = "0" departSpeed="11.180000"/>
	<vehicle id="SX_153" type="car8" route="route0_2_4" depart="29" departLane = "1" departSpeed="11.180000"/>
	<vehicle id="SX_154" type="car6" route="route0_4_2" depart="29" departLane = "1" departSpeed="11.180000"/>
	<vehicle id="RR_155" type="car5" route="route1_2_1" depart="29" departLane = "0" departSpeed="11.180000"/>
	<vehicle id="LS_156" type="car5" route="route1_4_1" depart="29" departLane = "2" departSpeed="11.180000"/>
	<vehicle id="LX_157" type="car6" route="route0_1_2" depart="30" departLane = "2" departSpeed="11.180000"/>
	<vehicle id="LR_158" type="car5" route="route0_2_3" depart="30" departLane = "2" departSpeed="11.180000"/>
	<vehicle id="LX_159" type="car7" route="route1_3_4" depart="30" departLane = "2" departSpeed="11.180000"/>
	<vehicle id="SX_160" type="car9" route="route1_4_2" depart="30" departLane = "1" departSpeed="11.180000"/>
	<vehicle id="SR_161" type="car9" route="route0_1_3" depart="31" departLane = "1" departSpeed="11.180000"/>
	<vehicle id="SX_162" type="car7" route="route0_2_4" depart="31" departLane = "1" departSpeed="11.180000"/>
	<vehicle id="RL_163" type="car8" route="route0_4_3" depart="31" departLane = "0" departSpeed="11.180000"/>
	<vehicle id="RL_164" type="car8" route="route1_2_1" depart="31" departLane = "0" departSpeed="11.180000"/>
	<vehicle id="RX_165" type="car6" route="route1_3_2" depart="31" departLane = "0" departSpeed="11.180000"/>
	<vehicle id="RX_166" type="car9" route="route0_1_4" depart="32" departLane = "0" departSpeed="11.180000"/>
	<vehicle id="LR_167" type="car5" route="route0_2_3" depart="32" departLane = "2" departSpeed="11.180000"/>
	<vehicle id="RL_168" type="car8" route="route0_4_3" depart="32" departLane = "0" departSpeed="11.180000"/>
	<vehicle id="LX_169" type="car7" route="route1_2_3" depart="32" departLane = "2" departSpeed="11.180000"/>
	<vehicle id="SL_170" type="car9" route="route1_3_1" depart="32" departLane = "1" departSpeed="11.180000"/>
	<vehicle id="LS_171" type="car5" route="route1_4_1" depart="32" departLane = "2" departSpeed="11.180000"/>
	<vehicle id="SS_172" type="car5" route="route0_1_3" depart="33" departLane = "1" departSpeed="11.180000"/>
	<vehicle id="LS_173" type="car5" route="route0_2_3" depart="33" departLane = "2" departSpeed="11.180000"/>
	<vehicle id="RL_174" type="car9" route="route0_4_3" depart="33" departLane = "0" departSpeed="11.180000"/>
	<vehicle id="SX_175" type="car5" route="route1_2_4" depart="33" departLane = "1" departSpeed="11.180000"/>
	<vehicle id="LX_176" type="car8" route="route1_3_4" depart="33" departLane = "2" departSpeed="11.180000"/>
	<vehicle id="RX_177" type="car9" route="route0_1_4" depart="34" departLane = "0" departSpeed="11.180000"/>
	<vehicle id="SX_178" type="car7" route="route0_2_4" depart="34" departLane = "1" departSpeed="11.180000"/>
	<vehicle id="SX_179" type="car9" route="route0_4_2" depart="34" departLane = "1" departSpeed="11.180000"/>
	<vehicle id="LX_180" type="car9" route="route1_2_3" depart="34" departLane = "2" departSpeed="11.180000"/>
	<vehicle id="LX_181" type="car9" route="route1_3_4" depart="34" departLane = "2" departSpeed="11.180000"/>
	<vehicle id="SX_182" type="car7" route="route1_4_2" depart="34" departLane = "1" departSpeed="11.180000"/>
	<vehicle id="SR_183" type="car9" route="route0_1_3" depart="35" departLane = "1" departSpeed="11.180000"/>
	<vehicle id="RX_184" type="car8" route="route0_2_1" depart="35" departLane = "0" departSpeed="11.180000"/>
	<vehicle id="RR_185" type="car7" route="route0_4_3" depart="35" departLane = "0" departSpeed="11.180000"/>
	<vehicle id="LX_186" type="car8" route="route1_2_3" depart="35" departLane = "2" departSpeed="11.180000"/>
	<vehicle id="SS_187" type="car5" route="route1_3_1" depart="35" departLane = "1" departSpeed="11.180000"/>
	<vehicle id="RX_188" type="car7" route="route1_4_3" depart="35" departLane = "0" departSpeed="11.180000"/>
	<vehicle id="LX_189" type="car5" route="route0_1_2" depart="36" departLane = "2" departSpeed="11.180000"/>
	<vehicle id="LL_190" type="car9" route="route0_2_3" depart="36" departLane = "2" departSpeed="11.180000"/>
	<vehicle id="LX_191" type="car7" route="route0_4_1" depart="36" departLane = "2" departSpeed="11.180000"/>
	<vehicle id="RR_192" type="car5" route="route1_2_1" depart="36" departLane = "0" departSpeed="11.180000"/>
	<vehicle id="RX_193" type="car5" route="route1_3_2" depart="36" departLane = "0" departSpeed="11.180000"/>
	<vehicle id="LS_194" type="car9" route="route1_4_1" depart="36" departLane = "2" departSpeed="11.180000"/>
	<vehicle id="LX_195" type="car5" route="route0_1_2" depart="37" departLane = "2" departSpeed="11.180000"/>
	<vehicle id="SX_196" type="car7" route="route0_2_4" depart="37" departLane = "1" departSpeed="11.180000"/>
	<vehicle id="RR_197" type="car8" route="route0_4_3" depart="37" departLane = "0" departSpeed="11.180000"/>
	<vehicle id="SX_198" type="car5" route="route1_2_4" depart="37" departLane = "1" departSpeed="11.180000"/>
	<vehicle id="RX_199" type="car8" route="route1_4_3" depart="37" departLane = "0" departSpeed="11.180000"/>
	<vehicle id="LX_200" type="car5" route="route0_1_2" depart="38" departLane = "2" departSpeed="11.180000"/>
	<vehicle id="RX_201" type="car5" route="route0_2_1" depart="38" departLane = "0" departSpeed="11.180000"/>
	<vehicle id="RR_202" type="car8" route="route0_4_3" depart="38" departLane = "0" departSpeed="11.180000"/>
	<vehicle id="SX_203" type="car5" route="route1_2_4" depart="38" departLane = "1" departSpeed="11.180000"/>
	<vehicle id="RX_204" type="car6" route="route1_3_2" depart="38" departLane = "0" departSpeed="11.180000"/>
	<vehicle id="LR_205" type="car8" route="route1_4_1" depart="38" departLane = "2" departSpeed="11.180000"/>
	<vehicle id="SL_206" type="car9" route="route0_1_3" depart="39" departLane = "1" departSpeed="11.180000"/>
	<vehicle id="SX_207" type="car7" route="route0_2_4" depart="39" departLane = "1" departSpeed="11.180000"/>
	<vehicle id="LX_208" type="car6" route="route0_4_1" depart="39" departLane = "2" departSpeed="11.180000"/>
	<vehicle id="RS_209" type="car8" route="route1_2_1" depart="39" departLane = "0" departSpeed="11.180000"/>
	<vehicle id="SS_210" type="car8" route="route1_3_1" depart="39" departLane = "1" departSpeed="11.180000"/>
	<vehicle id="SX_211" type="car9" route="route1_4_2" depart="39" departLane = "1" departSpeed="11.180000"/>
	<vehicle id="LX_212" type="car9" route="route0_1_2" depart="40" departLane = "2" departSpeed="11.180000"/>
	<vehicle id="RX_213" type="car8" route="route0_2_1" depart="40" departLane = "0" departSpeed="11.180000"/>
	<vehicle id="LX_214" type="car7" route="route0_4_1" depart="40" departLane = "2" departSpeed="11.180000"/>
	<vehicle id="SX_215" type="car5" route="route1_2_4" depart="40" departLane = "1" departSpeed="11.180000"/>
	<vehicle id="LX_216" type="car7" route="route1_3_4" depart="40" departLane = "2" departSpeed="11.180000"/>
	<vehicle id="LR_217" type="car7" route="route1_4_1" depart="40" departLane = "2" departSpeed="11.180000"/>
	<vehicle id="RX_218" type="car5" route="route0_1_4" depart="41" departLane = "0" departSpeed="11.180000"/>
	<vehicle id="RX_219" type="car9" route="route0_2_1" depart="41" departLane = "0" departSpeed="11.180000"/>
	<vehicle id="RR_220" type="car9" route="route0_4_3" depart="41" departLane = "0" departSpeed="11.180000"/>
	<vehicle id="LX_221" type="car7" route="route1_3_4" depart="41" departLane = "2" departSpeed="11.180000"/>
	<vehicle id="LS_222" type="car5" route="route1_4_1" depart="41" departLane = "2" departSpeed="11.180000"/>
	<vehicle id="LX_223" type="car9" route="route0_1_2" depart="42" departLane = "2" departSpeed="11.180000"/>
	<vehicle id="LL_224" type="car8" route="route0_2_3" depart="42" departLane = "2" departSpeed="11.180000"/>
	<vehicle id="RL_225" type="car6" route="route0_4_3" depart="42" departLane = "0" departSpeed="11.180000"/>
	<vehicle id="RL_226" type="car7" route="route1_2_1" depart="42" departLane = "0" departSpeed="11.180000"/>
	<vehicle id="LX_227" type="car9" route="route1_3_4" depart="42" departLane = "2" departSpeed="11.180000"/>
	<vehicle id="LX_228" type="car5" route="route0_1_2" depart="43" departLane = "2" departSpeed="11.180000"/>
	<vehicle id="RX_229" type="car8" route="route0_2_1" depart="43" departLane = "0" departSpeed="11.180000"/>
	<vehicle id="LX_230" type="car7" route="route0_4_1" depart="43" departLane = "2" departSpeed="11.180000"/>
	<vehicle id="SX_231" type="car5" route="route1_2_4" depart="43" departLane = "1" departSpeed="11.180000"/>
	<vehicle id="SR_232" type="car5" route="route0_1_3" depart="44" departLane = "1" departSpeed="11.180000"/>
	<vehicle id="RX_233" type="car6" route="route0_2_1" depart="44" departLane = "0" departSpeed="11.180000"/>
	<vehicle id="LX_234" type="car6" route="route0_4_1" depart="44" departLane = "2" departSpeed="11.180000"/>
	<vehicle id="LX_235" type="car9" route="route1_2_3" depart="44" departLane = "2" departSpeed="11.180000"/>
	<vehicle id="LX_236" type="car5" route="route1_3_4" depart="44" departLane = "2" departSpeed="11.180000"/>
	<vehicle id="LL_237" type="car6" route="route1_4_1" depart="44" departLane = "2" departSpeed="11.180000"/>
	<vehicle id="SR_238" type="car8" route="route0_1_3" depart="45" departLane = "1" departSpeed="11.180000"/>
	<vehicle id="RL_239" type="car5" route="route0_4_3" depart="45" departLane = "0" departSpeed="11.180000"/>
	<vehicle id="SX_240" type="car5" route="route1_2_4" depart="45" departLane = "1" departSpeed="11.180000"/>
	<vehicle id="LX_241" type="car9" route="route1_3_4" depart="45" departLane = "2" departSpeed="11.180000"/>
	<vehicle id="RX_242" type="car5" route="route1_4_3" depart="45" departLane = "0" departSpeed="11.180000"/>
	<vehicle id="LX_243" type="car9" route="route0_1_2" depart="46" departLane = "2" departSpeed="11.180000"/>
	<vehicle id="RX_244" type="car9" route="route0_2_1" depart="46" departLane = "0" departSpeed="11.180000"/>
	<vehicle id="RR_245" type="car7" route="route0_4_3" depart="46" departLane = "0" departSpeed="11.180000"/>
	<vehicle id="LX_246" type="car9" route="route1_2_3" depart="46" departLane = "2" departSpeed="11.180000"/>
	<vehicle id="SX_247" type="car5" route="route1_4_2" depart="46" departLane = "1" departSpeed="11.180000"/>
	<vehicle id="SX_248" type="car7" route="route0_2_4" depart="47" departLane = "1" departSpeed="11.180000"/>
	<vehicle id="LX_249" type="car9" route="route0_4_1" depart="47" departLane = "2" departSpeed="11.180000"/>
	<vehicle id="SL_250" type="car6" route="route1_3_1" depart="47" departLane = "1" departSpeed="11.180000"/>
	<vehicle id="SX_251" type="car8" route="route1_4_2" depart="47" departLane = "1" departSpeed="11.180000"/>
	<vehicle id="LX_252" type="car7" route="route0_1_2" depart="48" departLane = "2" departSpeed="11.180000"/>
	<vehicle id="RX_253" type="car5" route="route0_2_1" depart="48" departLane = "0" departSpeed="11.180000"/>
	<vehicle id="LX_254" type="car5" route="route0_4_1" depart="48" departLane = "2" departSpeed="11.180000"/>
	<vehicle id="SX_255" type="car7" route="route1_2_4" depart="48" departLane = "1" departSpeed="11.180000"/>
	<vehicle id="LX_256" type="car8" route="route1_3_4" depart="48" departLane = "2" departSpeed="11.180000"/>
	<vehicle id="SX_257" type="car7" route="route1_4_2" depart="48" departLane = "1" departSpeed="11.180000"/>
	<vehicle id="RX_258" type="car5" route="route0_1_4" depart="49" departLane = "0" departSpeed="11.180000"/>
	<vehicle id="SX_259" type="car6" route="route0_2_4" depart="49" departLane = "1" departSpeed="11.180000"/>
	<vehicle id="LX_260" type="car7" route="route1_2_3" depart="49" departLane = "2" departSpeed="11.180000"/>