<routes>

	<vType id="car5" accel="200.0" decel="200.0" sigma="0.0" length="5" minGap="3.000000" maxSpeed="11.180000" tau="0.100000" carFollowModel="CACC" color="255,255,255"/>
	<vType id="car6" accel="200.0" decel="200.0" sigma="0.0" length="6" minGap="3.000000" maxSpeed="11.180000" tau="0.100000" carFollowModel="CACC" color="255,255,255"/>
	<vType id="car7" accel="200.0" decel="200.0" sigma="0.0" length="7" minGap="3.000000" maxSpeed="11.180000" tau="0.100000" carFollowModel="CACC" color="255,255,255"/>
	<vType id="car8" accel="200.0" decel="200.0" sigma="0.0" length="8" minGap="3.000000" maxSpeed="11.180000" tau="0.100000" carFollowModel="CACC" color="255,255,255"/>
	<vType id="car9" accel="200.0" decel="200.0" sigma="0.0" length="9" minGap="3.000000" maxSpeed="11.180000" tau="0.100000" carFollowModel="CACC" color="255,255,255"/>

	<route id="route0_1_2" edges=" 001_001_1"/>
	<route id="route0_1_3" edges=" 001_001_1"/>
	<route id="route0_1_4" edges=" 001_001_1"/>
	<route id="route0_2_1" edges=" 001_001_2"/>
	<route id="route0_2_3" edges=" 001_001_2"/>
	<route id="route0_2_4" edges=" 001_001_2"/>
	<route id="route0_3_1" edges=" 001_001_3"/>
	<route id="route0_3_2" edges=" 001_001_3"/>
	<route id="route0_3_4" edges=" 001_001_3"/>
	<route id="route0_4_1" edges=" 001_001_4"/>
	<route id="route0_4_2" edges=" 001_001_4"/>
	<route id="route0_4_3" edges=" 001_001_4"/>
	<route id="route1_1_2" edges=" 002_001_1"/>
	<route id="route1_1_3" edges=" 002_001_1"/>
	<route id="route1_1_4" edges=" 002_001_1"/>
	<route id="route1_2_1" edges=" 002_001_2"/>
	<route id="route1_2_3" edges=" 002_001_2"/>
	<route id="route1_2_4" edges=" 002_001_2"/>
	<route id="route1_3_1" edges=" 002_001_3"/>
	<route id="route1_3_2" edges=" 002_001_3"/>
	<route id="route1_3_4" edges=" 002_001_3"/>
	<route id="route1_4_1" edges=" 002_001_4"/>
	<route id="route1_4_2" edges=" 002_001_4"/>
	<route id="route1_4_3" edges=" 002_001_4"/>

	<vehicle id="SR_0" type="car8" route="route0_1_3" depart="0" departLane = "1" departSpeed="11.180000"/>
	<vehicle id="SX_1" type="car9" route="route0_2_4" depart="0" departLane = "1" departSpeed="11.180000"/>
	<vehicle id="SX_2" type="car7" route="route0_4_2" depart="0" departLane = "1" departSpeed="11.180000"/>
	<vehicle id="SS_3" type="car6" route="route1_3_1" depart="0" departLane = "1" departSpeed="11.180000"/>
	<vehicle id="SX_4" type="car7" route="route1_4_2" depart="0" departLane = "1" departSpeed="11.180000"/>
	<vehicle id="RX_5" type="car5" route="route0_1_4" depart="1" departLane = "0" departSpeed="11.180000"/>
	<vehicle id="RX_6" type="car7" route="route0_2_1" depart="1" departLane = "0" departSpeed="11.180000"/>
	<vehicle id="SX_7" type="car9" route="route1_2_4" depart="1" departLane = "1" departSpeed="11.180000"/>
	<vehicle id="RX_8" type="car5" route="route1_4_3" depart="1" departLane = "0" departSpeed="11.180000"/>
	<vehicle id="SS_9" type="car7" route="route0_1_3" depart="2" departLane = "1" departSpeed="11.180000"/>
	<vehicle id="RX_10" type="car5" route="route0_2_1" depart="2" departLane = "0" departSpeed="11.180000"/>
	<vehicle id="LX_11" type="car7" route="route0_4_1" depart="2" departLane = "2" departSpeed="11.180000"/>
	<vehicle id="LX_12" type="car6" route="route1_2_3" depart="2" departLane = "2" departSpeed="11.180000"/>
	<vehicle id="LR_13" type="car9" route="route1_4_1" depart="2" departLane = "2" departSpeed="11.180000"/>
	<vehicle id="RX_14" type="car9" route="route0_1_4" depart="3" departLane = "0" departSpeed="11.180000"/>
	<vehicle id="RR_15" type="car8" route="route0_4_3" depart="3" departLane = "0" departSpeed="11.180000"/>
	<vehicle id="RS_16" type="car5" route="route1_2_1" depart="3" departLane = "0" departSpeed="11.180000"/>
	<vehicle id="RX_17" type="car7" route="route1_3_2" depart="3" departLane = "0" departSpeed="11.180000"/>
	<vehicle id="LS_18" type="car7" route="route1_4_1" depart="3" departLane = "2" departSpeed="11.180000"/>
	<vehicle id="LX_19" type="car5" route="route0_1_2" depart="4" departLane = "2" departSpeed="11.180000"/>
	<vehicle id="RX_20" type="car9" route="route0_2_1" depart="4" departLane = "0" departSpeed="11.180000"/>
	<vehicle id="SX_21" type="car6" route="route0_4_2" depart="4" departLane = "1" departSpeed="11.180000"/>
	<vehicle id="SX_22" type="car8" route="route1_2_4" depart="4" departLane = "1" departSpeed="11.180000"/>
	<vehicle id="LX_23" type="car7" route="route1_3_4" depart="4" departLane = "2" departSpeed="11.180000"/>
	<vehicle id="RX_24" type="car8" route="route1_4_3" depart="4" departLane = "0" departSpeed="11.180000"/>
	<vehicle id="SS_25" type="car9" route="route0_1_3" depart="5" departLane = "1" departSpeed="11.180000"/>
	<vehicle id="LS_26" type="car5" route="route0_2_3" depart="5" departLane = "2" departSpeed="11.180000"/>
	<vehicle id="SX_27" type="car9" route="route0_4_2" depart="5" departLane = "1" departSpeed="11.180000"/>
	<vehicle id="SX_28" type="car9" route="route1_2_4" depart="5" departLane = "1" departSpeed="11.180000"/>
	<vehicle id="RX_29" type="car7" route="route1_3_2" depart="5" departLane = "0" departSpeed="11.180000"/>
	<vehicle id="RX_30" type="car9" route="route1_4_3" depart="5" departLane = "0" departSpeed="11.180000"/>
	<vehicle id="SS_31" type="car7" route="route0_1_3" depart="6" departLane = "1" departSpeed="11.180000"/>
	<vehicle id="RX_32" type="car7" route="route0_2_1" depart="6" departLane = "0" departSpeed="11.180000"/>
	<vehicle id="LX_33" type="car6" route="route0_4_1" depart="6" departLane = "2" departSpeed="11.180000"/>
	<vehicle id="RR_34" type="car7" route="route1_2_1" depart="6" departLane = "0" departSpeed="11.180000"/>
	<vehicle id="LX_35" type="car5" route="route1_3_4" depart="6" departLane = "2" departSpeed="11.180000"/>
	<vehicle id="LL_36" type="car6" route="route1_4_1" depart="6" departLane = "2" departSpeed="11.180000"/>
	<vehicle id="SS_37" type="car5" route="route0_1_3" depart="7" departLane = "1" departSpeed="11.180000"/>
	<vehicle id="SX_38" type="car9" route="route0_2_4" depart="7" departLane = "1" departSpeed="11.180000"/>
	<vehicle id="RL_39" type="car9" route="route0_4_3" depart="7" departLane = "0" departSpeed="11.180000"/>
	<vehicle id="LX_40" type="car6" route="route1_2_3" depart="7" departLane = "2" departSpeed="11.180000"/>
	<vehicle id="LX_41" type="car9" route="route1_3_4" depart="7" departLane = "2" departSpeed="11.180000"/>
	<vehicle id="SX_42" type="car8" route="route1_4_2" depart="7" departLane = "1" departSpeed="11.180000"/>
	<vehicle id="LX_43" type="car8" route="route0_1_2" depart="8" departLane = "2" departSpeed="11.180000"/>
	<vehicle id="SX_44" type="car7" route="route0_2_4" depart="8" departLane = "1" departSpeed="11.180000"/>
	<vehicle id="LX_45" type="car9" route="route0_4_1" depart="8" departLane = "2" departSpeed="11.180000"/>
	<vehicle id="LX_46" type="car9" route="route1_2_3" depart="8" departLane = "2" departSpeed="11.180000"/>
	<vehicle id="LX_47" type="car6" route="route1_3_4" depart="8" departLane = "2" departSpeed="11.180000"/>
	<vehicle id="SX_48" type="car7" route="route1_4_2" depart="8" departLane = "1" departSpeed="11.180000"/>
	<vehicle id="LX_49" type="car6" route="route0_1_2" depart="9" departLane = "2" departSpeed="11.180000"/>
	<vehicle id="LS_50" type="car6" route="route0_2_3" depart="9" departLane = "2" departSpeed="11.180000"/>
	<vehicle id="RL_51" type="car5" route="route0_4_3" depart="9" departLane = "0" departSpeed="11.180000"/>
	<vehicle id="RL_52" type="car6" route="route1_2_1" depart="9" departLane = "0" departSpeed="11.180000"/>
	<vehicle id="RX_53" type="car6" route="route1_3_2" depart="9" departLane = "0" departSpeed="11.180000"/>
	<vehicle id="SX_54" type="car9" route="route1_4_2" depart="9" departLane = "1" departSpeed="11.180000"/>
	<vehicle id="RX_55" type="car9" route="route0_1_4" depart="10" departLane = "0" departSpeed="11.180000"/>
	<vehicle id="SX_56" type="car5" route="route0_2_4" depart="10" departLane = "1" departSpeed="11.180000"/>
	<vehicle id="RL_57" type="car6" route="route0_4_3" depart="10" departLane = "0" departSpeed="11.180000"/>
	<vehicle id="LX_58" type="car9" route="route1_2_3" depart="10" departLane = "2" departSpeed="11.180000"/>
	<vehicle id="LX_59" type="car5" route="route1_3_4" depart="10" departLane = "2" departSpeed="11.180000"/>
	<vehicle id="LL_60" type="car5" route="route1_4_1" depart="10" departLane = "2" departSpeed="11.180000"/>
	<vehicle id="LX_61" type="car5" route="route0_1_2" depart="11" departLane = "2" departSpeed="11.180000"/>
	<vehicle id="SX_62" type="car6" route="route0_2_4" depart="11" departLane = "1" departSpeed="11.180000"/>
	<vehicle id="LX_63" type="car8" route="route0_4_1" depart="11" departLane = "2" departSpeed="11.180000"/>
	<vehicle id="RS_64" type="car5" route="route1_2_1" depart="11" departLane = "0" departSpeed="11.180000"/>
	<vehicle id="LS_65" type="car8" route="route1_4_1" depart="11" departLane = "2" departSpeed="11.180000"/>
	<vehicle id="LX_66" type="car7" route="route0_1_2" depart="12" departLane = "2" departSpeed="11.180000"/>
	<vehicle id="SX_67" type="car5" route="route0_2_4" depart="12" departLane = "1" departSpeed="11.180000"/>
	<vehicle id="RL_68" type="car7" route="route0_4_3" depart="12" departLane = "0" departSpeed="11.180000"/>
	<vehicle id="RL_69" type="car5" route="route1_2_1" depart="12" departLane = "0" departSpeed="11.180000"/>
	<vehicle id="RX_70" type="car5" route="route1_3_2" depart="12" departLane = "0" departSpeed="11.180000"/>
	<vehicle id="LL_71" type="car8" route="route1_4_1" depart="12" departLane = "2" departSpeed="11.180000"/>
	<vehicle id="SL_72" type="car7" route="route0_1_3" depart="13" departLane = "1" departSpeed="11.180000"/>
	<vehicle id="RL_73" type="car9" route="route0_4_3" depart="13" departLane = "0" departSpeed="11.180000"/>
	<vehicle id="RL_74" type="car6" route="route1_2_1" depart="13" departLane = "0" departSpeed="11.180000"/>
	<vehicle id="RX_75" type="car6" route="route1_4_3" depart="13" departLane = "0" departSpeed="11.180000"/>
	<vehicle id="RX_76" type="car7" route="route0_1_4" depart="14" departLane = "0" departSpeed="11.180000"/>
	<vehicle id="LS_77" type="car5" route="route0_2_3" depart="14" departLane = "2" departSpeed="11.180000"/>
	<vehicle id="SX_78" type="car8" route="route0_4_2" depart="14" departLane = "1" departSpeed="11.180000"/>
	<vehicle id="SX_79" type="car5" route="route1_2_4" depart="14" departLane = "1" departSpeed="11.180000"/>
	<vehicle id="LX_80" type="car8" route="route1_3_4" depart="14" departLane = "2" departSpeed="11.180000"/>
	<vehicle id="RX_81" type="car7" route="route0_1_4" depart="15" departLane = "0" departSpeed="11.180000"/>
	<vehicle id="SX_82" type="car8" route="route0_2_4" depart="15" departLane = "1" departSpeed="11.180000"/>
	<vehicle id="RR_83" type="car7" route="route0_4_3" depart="15" departLane = "0" departSpeed="11.180000"/>
	<vehicle id="LX_84" type="car5" route="route1_2_3" depart="15" departLane = "2" departSpeed="11.180000"/>
	<vehicle id="RX_85" type="car5" route="route1_3_2" depart="15" departLane = "0" departSpeed="11.180000"/>
	<vehicle id="SX_86" type="car5" route="route1_4_2" depart="15" departLane = "1" departSpeed="11.180000"/>
	<vehicle id="RX_87" type="car6" route="route0_1_4" depart="16" departLane = "0" departSpeed="11.180000"/>
	<vehicle id="SX_88" type="car8" route="route0_2_4" depart="16" departLane = "1" departSpeed="11.180000"/>
	<vehicle id="RR_89" type="car7" route="route0_4_3" depart="16" departLane = "0" departSpeed="11.180000"/>
	<vehicle id="RS_90" type="car9" route="route1_2_1" depart="16" departLane = "0" departSpeed="11.180000"/>
	<vehicle id="RX_91" type="car9" route="route1_4_3" depart="16" departLane = "0" departSpeed="11.180000"/>
	<vehicle id="SS_92" type="car7" route="route0_1_3" depart="17" departLane = "1" departSpeed="11.180000"/>
	<vehicle id="SX_93" type="car8" route="route0_2_4" depart="17" departLane = "1" departSpeed="11.180000"/>
	<vehicle id="LX_94" type="car5" route="route0_4_1" depart="17" departLane = "2" departSpeed="11.180000"/>
	<vehicle id="LX_95" type="car6" route="route1_2_3" depart="17" departLane = "2" departSpeed="11.180000"/>
	<vehicle id="SL_96" type="car6" route="route1_3_1" depart="17" departLane = "1" departSpeed="11.180000"/>
	<vehicle id="SX_97" type="car8" route="route1_4_2" depart="17" departLane = "1" departSpeed="11.180000"/>
	<vehicle id="SL_98" type="car9" route="route0_1_3" depart="18" departLane = "1" departSpeed="11.180000"/>
	<vehicle id="LS_99" type="car5" route="route0_2_3" depart="18" departLane = "2" departSpeed="11.180000"/>
	<vehicle id="SX_100" type="car9" route="route0_4_2" depart="18" departLane = "1" departSpeed="11.180000"/>
	<vehicle id="SX_101" type="car5" route="route1_2_4" depart="18" departLane = "1" departSpeed="11.180000"/>
	<vehicle id="SS_102" type="car5" route="route1_3_1" depart="18" departLane = "1" departSpeed="11.180000"/>
	<vehicle id="SX_103" type="car6" route="route1_4_2" depart="18" departLane = "1" departSpeed="11.180000"/>
	<vehicle id="RX_104" type="car8" route="route0_1_4" depart="19" departLane = "0" departSpeed="11.180000"/>
	<vehicle id="SX_105" type="car5" route="route0_4_2" depart="19" departLane = "1" departSpeed="11.180000"/>
	<vehicle id="SX_106" type="car8" route="route1_2_4" depart="19" departLane = "1" departSpeed="11.180000"/>
	<vehicle id="RX_107" type="car8" route="route1_3_2" depart="19" departLane = "0" departSpeed="11.180000"/>
	<vehicle id="RX_108" type="car8" route="route1_4_3" depart="19" departLane = "0" departSpeed="11.180000"/>
	<vehicle id="RX_109" type="car5" route="route0_1_4" depart="20" departLane = "0" departSpeed="11.180000"/>
	<vehicle id="LR_110" type="car6" route="route0_2_3" depart="20" departLane = "2" departSpeed="11.180000"/>
	<vehicle id="RR_111" type="car8" route="route1_2_1" depart="20" departLane = "0" departSpeed="11.180000"/>
	<vehicle id="LX_112" type="car6" route="route1_3_4" depart="20" departLane = "2" departSpeed="11.180000"/>
	<vehicle id="RX_113" type="car5" route="route1_4_3" depart="20" departLane = "0" departSpeed="11.180000"/>
	<vehicle id="LS_114" type="car9" route="route0_2_3" depart="21" departLane = "2" departSpeed="11.180000"/>
	<vehicle id="LX_115" type="car5" route="route0_4_1" depart="21" departLane = "2" departSpeed="11.180000"/>
	<vehicle id="RR_116" type="car6" route="route1_2_1" depart="21" departLane = "0" departSpeed="11.180000"/>
	<vehicle id="SS_117" type="car7" route="route1_3_1" depart="21" departLane = "1" departSpeed="11.180000"/>
	<vehicle id="LR_118" type="car6" route="route1_4_1" depart="21" departLane = "2" departSpeed="11.180000"/>
	<vehicle id="SR_119" type="car8" route="route0_1_3" depart="22" departLane = "1" departSpeed="11.180000"/>
	<vehicle id="RX_120" type="car5" route="route0_2_1" depart="22" departLane = "0" departSpeed="11.180000"/>
	<vehicle id="RR_121" type="car8" route="route0_4_3" depart="22" departLane = "0" departSpeed="11.180000"/>
	<vehicle id="LX_122" type="car5" route="route1_2_3" depart="22" departLane = "2" departSpeed="11.180000"/>
	<vehicle id="SR_123" type="car6" route="route1_3_1" depart="22" departLane = "1" departSpeed="11.180000"/>
	<vehicle id="LS_124" type="car7" route="route1_4_1" depart="22" departLane = "2" departSpeed="11.180000"/>
	<vehicle id="LX_125" type="car6" route="route0_1_2" depart="23" departLane = "2" departSpeed="11.180000"/>
	<vehicle id="LL_126" type="car5" route="route0_2_3" depart="23" departLane = "2" departSpeed="11.180000"/>
	<vehicle id="RL_127" type="car6" route="route0_4_3" depart="23" departLane = "0" departSpeed="11.180000"/>
	<vehicle id="SX_128" type="car9" route="route1_2_4" depart="23" departLane = "1" departSpeed="11.180000"/>
	<vehicle id="RX_129" type="car7" route="route1_3_2" depart="23" departLane = "0" departSpeed="11.180000"/>
	<vehicle id="RX_130" type="car9" route="route0_2_1" depart="24" departLane = "0" departSpeed="11.180000"/>
	<vehicle id="LX_131" type="car8" route="route0_4_1" depart="24" departLane = "2" departSpeed="11.180000"/>
	<vehicle id="LX_132" type="car7" route="route1_2_3" depart="24" departLane = "2" departSpeed="11.180000"/>
	<vehicle id="SS_133" type="car6" route="route1_3_1" depart="24" departLane = "1" departSpeed="11.180000"/>
	<vehicle id="LR_134" type="car9" route="route1_4_1" depart="24" departLane = "2" departSpeed="11.180000"/>
	<vehicle id="SS_135" type="car6" route="route0_1_3" depart="25" departLane = "1" departSpeed="11.180000"/>
	<vehicle id="SX_136" type="car7" route="route0_2_4" depart="25" departLane = "1" departSpeed="11.180000"/>
	<vehicle id="RL_137" type="car7" route="route0_4_3" depart="25" departLane = "0" departSpeed="11.180000"/>
	<vehicle id="SX_138" type="car7" route="route1_2_4" depart="25" departLane = "1" departSpeed="11.180000"/>
	<vehicle id="LX_139" type="car5" route="route1_3_4" depart="25" departLane = "2" departSpeed="11.180000"/>
	<vehicle id="LR_140" type="car6" route="route1_4_1" depart="25" departLane = "2" departSpeed="11.180000"/>
	<vehicle id="RX_141" type="car9" route="route0_1_4" depart="26" departLane = "0" departSpeed="11.180000"/>
	<vehicle id="SX_142" type="car8" route="route0_2_4" depart="26" departLane = "1" departSpeed="11.180000"/>
	<vehicle id="LX_143" type="car5" route="route1_2_3" depart="26" departLane = "2" departSpeed="11.180000"/>
	<vehicle id="LX_144" type="car6" route="route1_3_4" depart="26" departLane = "2" departSpeed="11.180000"/>
	<vehicle id="LX_145" type="car9" route="route0_1_2" depart="27" departLane = "2" departSpeed="11.180000"/>
	<vehicle id="SX_146" type="car7" route="route0_2_4" depart="27" departLane = "1" departSpeed="11.180000"/>
	<vehicle id="LX_147" type="car7" route="route0_4_1" depart="27" departLane = "2" departSpeed="11.180000"/>
	<vehicle id="RS_148" type="car5" route="route1_2_1" depart="27" departLane = "0" departSpeed="11.180000"/>
	<vehicle id="LX_149" type="car8" route="route1_3_4" depart="27" departLane = "2" departSpeed="11.180000"/>
	<vehicle id="LL_150" type="car7" route="route1_4_1" depart="27" departLane = "2" departSpeed="11.180000"/>
	<vehicle id="RX_151" type="car5" route="route0_1_4" depart="28" departLane = "0" departSpeed="11.180000"/>
	<vehicle id="SX_152" type="car8" route="route0_2_4" depart="28" departLane = "1" departSpeed="11.180000"/>
	<vehicle id="SX_153" type="car7" route="route0_4_2" depart="28" departLane = "1" departSpeed="11.180000"/>
	<vehicle id="RR_154" type="car6" route="route1_2_1" depart="28" departLane = "0" departSpeed="11.180000"/>
	<vehicle id="LS_155" type="car8" route="route1_4_1" depart="28" departLane = "2" departSpeed="11.180000"/>
	<vehicle id="LX_156" type="car5" route="route0_1_2" depart="29" departLane = "2" departSpeed="11.180000"/>
	<vehicle id="LR_157" type="car5" route="route0_2_3" depart="29" departLane = "2" departSpeed="11.180000"/>
	<vehicle id="LX_158" type="car6" route="route0_4_1" depart="29" departLane = "2" departSpeed="11.180000"/>
	<vehicle id="SX_159" type="car5" route="route1_2_4" depart="29" departLane = "1" departSpeed="11.180000"/>
	<vehicle id="SR_160" type="car9" route="route1_3_1" depart="29" departLane = "1" departSpeed="11.180000"/>
	<vehicle id="SX_161" type="car8" route="route1_4_2" depart="29" departLane = "1" departSpeed="11.180000"/>
	<vehicle id="RX_162" type="car6" route="route0_2_1" depart="30" departLane = "0" departSpeed="11.180000"/>
	<vehicle id="LX_163" type="car7" route="route0_4_1" depart="30" departLane = "2" departSpeed="11.180000"/>
	<vehicle id="RL_164" type="car7" route="route1_2_1" depart="30" departLane = "0" departSpeed="11.180000"/>
	<vehicle id="RX_165" type="car6" route="route1_3_2" depart="30" departLane = "0" departSpeed="11.180000"/>
	<vehicle id="RX_166" type="car7" route="route1_4_3" depart="30" departLane = "0" departSpeed="11.180000"/>
	<vehicle id="LX_167" type="car5" route="route0_1_2" depart="31" departLane = "2" departSpeed="11.180000"/>
	<vehicle id="RR_168" type="car6" route="route0_4_3" depart="31" departLane = "0" departSpeed="11.180000"/>
	<vehicle id="LX_169" type="car8" route="route1_2_3" depart="31" departLane = "2" departSpeed="11.180000"/>
	<vehicle id="LX_170" type="car5" route="route1_3_4" depart="31" departLane = "2" departSpeed="11.180000"/>
	<vehicle id="SL_171" type="car9" route="route0_1_3" depart="32" departLane = "1" departSpeed="11.180000"/>
	<vehicle id="LS_172" type="car6" route="route0_2_3" depart="32" departLane = "2" departSpeed="11.180000"/>
	<vehicle id="SX_173" type="car7" route="route0_4_2" depart="32" departLane = "1" departSpeed="11.180000"/>
	<vehicle id="SX_174" type="car6" route="route1_2_4" depart="32" departLane = "1" departSpeed="11.180000"/>
	<vehicle id="LX_175" type="car9" route="route1_3_4" depart="32" departLane = "2" departSpeed="11.180000"/>
	<vehicle id="SR_176" type="car8" route="route0_1_3" depart="33" departLane = "1" departSpeed="11.180000"/>
	<vehicle id="LS_177" type="car8" route="route0_2_3" depart="33" departLane = "2" departSpeed="11.180000"/>
	<vehicle id="LX_178" type="car8" route="route0_4_1" depart="33" departLane = "2" departSpeed="11.180000"/>
	<vehicle id="RS_179" type="car7" route="route1_2_1" depart="33" departLane = "0" departSpeed="11.180000"/>
	<vehicle id="SL_180" type="car8" route="route1_3_1" depart="33" departLane = "1" departSpeed="11.180000"/>
	<vehicle id="LS_181" type="car6" route="route1_4_1" depart="33" departLane = "2" departSpeed="11.180000"/>
	<vehicle id="SR_182" type="car6" route="route0_1_3" depart="34" departLane = "1" departSpeed="11.180000"/>
	<vehicle id="RX_183" type="car7" route="route0_2_1" depart="34" departLane = "0" departSpeed="11.180000"/>
	<vehicle id="RR_184" type="car5" route="route0_4_3" depart="34" departLane = "0" departSpeed="11.180000"/>
	<vehicle id="LX_185" type="car7" route="route1_2_3" depart="34" departLane = "2" departSpeed="11.180000"/>
	<vehicle id="SS_186" type="car6" route="route1_3_1" depart="34" departLane = "1" departSpeed="11.180000"/>
	<vehicle id="RX_187" type="car9" route="route1_4_3" depart="34" departLane = "0" departSpeed="11.180000"/>
	<vehicle id="LX_188" type="car8" route="route0_1_2" depart="35" departLane = "2" departSpeed="11.180000"/>
	<vehicle id="LL_189" type="car5" route="route0_2_3" depart="35" departLane = "2" departSpeed="11.180000"/>
	<vehicle id="LX_190" type="car5" route="route0_4_1" depart="35" departLane = "2" departSpeed="11.180000"/>
	<vehicle id="RR_191" type="car6" route="route1_2_1" depart="35" departLane = "0" departSpeed="11.180000"/>
	<vehicle id="RX_192" type="car5" route="route1_3_2" depart="35" departLane = "0" departSpeed="11.180000"/>
	<vehicle id="LS_193" type="car8" route="route1_4_1" depart="35" departLane = "2" departSpeed="11.180000"/>
	<vehicle id="LX_194" type="car6" route="route0_1_2" depart="36" departLane = "2" departSpeed="11.180000"/>
	<vehicle id="SX_195" type="car8" route="route0_2_4" depart="36" departLane = "1" departSpeed="11.180000"/>
	<vehicle id="RR_196" type="car9" route="route1_2_1" depart="36" departLane = "0" departSpeed="11.180000"/>
	<vehicle id="SR_197" type="car9" route="route1_3_1" depart="36" departLane = "1" departSpeed="11.180000"/>
	<vehicle id="LR_198" type="car9" route="route1_4_1" depart="36" departLane = "2" departSpeed="11.180000"/>
	<vehicle id="RX_199" type="car5" route="route0_1_4" depart="37" departLane = "0" departSpeed="11.180000"/>
	<vehicle id="RX_200" type="car6" route="route0_2_1" depart="37" departLane = "0" departSpeed="11.180000"/>
	<vehicle id="SX_201" type="car9" route="route0_4_2" depart="37" departLane = "1" departSpeed="11.180000"/>
	<vehicle id="RL_202" type="car8" route="route1_2_1" depart="37" departLane = "0" departSpeed="11.180000"/>
	<vehicle id="RX_203" type="car8" route="route1_3_2" depart="37" departLane = "0" departSpeed="11.180000"/>
	<vehicle id="SX_204" type="car6" route="route1_4_2" depart="37" departLane = "1" departSpeed="11.180000"/>
	<vehicle id="LX_205" type="car5" route="route0_1_2" depart="38" departLane = "2" departSpeed="11.180000"/>
	<vehicle id="SX_206" type="car5" route="route0_2_4" depart="38" departLane = "1" departSpeed="11.180000"/>
	<vehicle id="LX_207" type="car7" route="route0_4_1" depart="38" departLane = "2" departSpeed="11.180000"/>
	<vehicle id="RS_208" type="car7" route="route1_2_1" depart="38" departLane = "0" departSpeed="11.180000"/>
	<vehicle id="SS_209" type="car8" route="route1_3_1" depart="38" departLane = "1" departSpeed="11.180000"/>
	<vehicle id="SX_210" type="car7" route="route1_4_2" depart="38" departLane = "1" departSpeed="11.180000"/>
	<vehicle id="LX_211" type="car8" route="route0_1_2" depart="39" departLane = "2" departSpeed="11.180000"/>
	<vehicle id="RX_212" type="car5" route="route0_2_1" depart="39" departLane = "0" departSpeed="11.180000"/>
	<vehicle id="LX_213" type="car6" route="route0_4_1" depart="39" departLane = "2" departSpeed="11.180000"/>
	<vehicle id="SX_214" type="car7" route="route1_2_4" depart="39" departLane = "1" departSpeed="11.180000"/>
	<vehicle id="LX_215" type="car5" route="route1_3_4" depart="39" departLane = "2" departSpeed="11.180000"/>
	<vehicle id="LR_216" type="car6" route="route1_4_1" depart="39" departLane = "2" departSpeed="11.180000"/>
	<vehicle id="RX_217" type="car9" route="route0_1_4" depart="40" departLane = "0" departSpeed="11.180000"/>
	<vehicle id="RX_218" type="car6" route="route0_2_1" depart="40" departLane = "0" departSpeed="11.180000"/>
	<vehicle id="RR_219" type="car7" route="route0_4_3" depart="40" departLane = "0" departSpeed="11.180000"/>
	<vehicle id="LX_220" type="car9" route="route1_2_3" depart="40" departLane = "2" departSpeed="11.180000"/>
	<vehicle id="LX_221" type="car8" route="route1_3_4" depart="40" departLane = "2" departSpeed="11.180000"/>
	<vehicle id="SX_222" type="car8" route="route1_4_2" depart="40" departLane = "1" departSpeed="11.180000"/>
	<vehicle id="LX_223" type="car5" route="route0_1_2" depart="41" departLane = "2" departSpeed="11.180000"/>
	<vehicle id="LL_224" type="car9" route="route0_2_3" depart="41" departLane = "2" departSpeed="11.180000"/>
	<vehicle id="RL_225" type="car7" route="route0_4_3" depart="41" departLane = "0" departSpeed="11.180000"/>
	<vehicle id="RL_226" type="car9" route="route1_2_1" depart="41" departLane = "0" departSpeed="11.180000"/>
	<vehicle id="LX_227" type="car6" route="route1_3_4" depart="41" departLane = "2" departSpeed="11.180000"/>
	<vehicle id="LR_228" type="car8" route="route1_4_1" depart="41" departLane = "2" departSpeed="11.180000"/>
	<vehicle id="LX_229" type="car5" route="route0_1_2" depart="42" departLane = "2" departSpeed="11.180000"/>
	<vehicle id="SX_230" type="car8" route="route0_2_4" depart="42" departLane = "1" departSpeed="11.180000"/>
	<vehicle id="SX_231" type="car7" route="route0_4_2" depart="42" departLane = "1" departSpeed="11.180000"/>
	<vehicle id="RR_232" type="car9" route="route1_2_1" depart="42" departLane = "0" departSpeed="11.180000"/>
	<vehicle id="LX_233" type="car6" route="route1_3_4" depart="42" departLane = "2" departSpeed="11.180000"/>
	<vehicle id="LX_234" type="car7" route="route0_1_2" depart="43" departLane = "2" departSpeed="11.180000"/>
	<vehicle id="LX_235" type="car5" route="route0_4_1" depart="43" departLane = "2" departSpeed="11.180000"/>
	<vehicle id="LX_236" type="car6" route="route1_2_3" depart="43" departLane = "2" departSpeed="11.180000"/>
	<vehicle id="LX_237" type="car8" route="route1_3_4" depart="43" departLane = "2" departSpeed="11.180000"/>
	<vehicle id="SX_238" type="car6" route="route1_4_2" depart="43" departLane = "1" departSpeed="11.180000"/>
	<vehicle id="RX_239" type="car5" route="route0_1_4" depart="44" departLane = "0" departSpeed="11.180000"/>
	<vehicle id="RL_240" type="car7" route="route1_2_1" depart="44" departLane = "0" departSpeed="11.180000"/>
	<vehicle id="SL_241" type="car9" route="route0_1_3" depart="45" departLane = "1" departSpeed="11.180000"/>
	<vehicle id="RX_242" type="car6" route="route0_2_1" depart="45" departLane = "0" departSpeed="11.180000"/>
	<vehicle id="LX_243" type="car9" route="route0_4_1" depart="45" departLane = "2" departSpeed="11.180000"/>
	<vehicle id="RR_244" type="car8" route="route1_2_1" depart="45" departLane = "0" departSpeed="11.180000"/>
	<vehicle id="RX_245" type="car5" route="route1_3_2" depart="45" departLane = "0" departSpeed="11.180000"/>
	<vehicle id="LS_246" type="car9" route="route1_4_1" depart="45" departLane = "2" departSpeed="11.180000"/>
	<vehicle id="SL_247" type="car5" route="route0_1_3" depart="46" departLane = "1" departSpeed="11.180000"/>
	<vehicle id="SX_248" type="car5" route="route0_4_2" depart="46" departLane = "1" departSpeed="11.180000"/>
	<vehicle id="LX_249" type="car6" route="route1_2_3" depart="46" departLane = "2" departSpeed="11.180000"/>
	<vehicle id="SL_250" type="car5" route="route1_3_1" depart="46" departLane = "1" departSpeed="11.180000"/>
	<vehicle id="RX_251" type="car8" route="route1_4_3" depart="46" departLane = "0" departSpeed="11.180000"/>
	<vehicle id="LX_252" type="car5" route="route0_1_2" depart="47" departLane = "2" departSpeed="11.180000"/>
	<vehicle id="SX_253" type="car7" route="route0_2_4" depart="47" departLane = "1" departSpeed="11.180000"/>
	<vehicle id="LX_254" type="car5" route="route0_4_1" depart="47" departLane = "2" departSpeed="11.180000"/>
	<vehicle id="SX_255" type="car5" route="route1_2_4" depart="47" departLane = "1" departSpeed="11.180000"/>
	<vehicle id="RX_256" type="car5" route="route1_3_2" depart="47" departLane = "0" departSpeed="11.180000"/>
	<vehicle id="SX_257" type="car6" route="route1_4_2" depart="47" departLane = "1" departSpeed="11.180000"/>
	<vehicle id="LX_258" type="car6" route="route0_1_2" depart="48" departLane = "2" departSpeed="11.180000"/>
	<vehicle id="SX_259" type="car5" route="route0_2_4" depart="48" departLane = "1" departSpeed="11.180000"/>
	<vehicle id="SX_260" type="car6" route="route0_4_2" depart="48" departLane = "1" departSpeed="11.180000"/>