<routes>

	<vType id="car5" accel="1000.0" decel="1000.0" sigma="0.0" length="5" minGap="3.000000" maxSpeed="11.180000" tau="0.100000" carFollowModel="CACC" color="255,255,255"/>
	<vType id="car6" accel="1000.0" decel="1000.0" sigma="0.0" length="6" minGap="3.000000" maxSpeed="11.180000" tau="0.100000" carFollowModel="CACC" color="255,255,255"/>
	<vType id="car7" accel="1000.0" decel="1000.0" sigma="0.0" length="7" minGap="3.000000" maxSpeed="11.180000" tau="0.100000" carFollowModel="CACC" color="255,255,255"/>
	<vType id="car8" accel="1000.0" decel="1000.0" sigma="0.0" length="8" minGap="3.000000" maxSpeed="11.180000" tau="0.100000" carFollowModel="CACC" color="255,255,255"/>
	<vType id="car9" accel="1000.0" decel="1000.0" sigma="0.0" length="9" minGap="3.000000" maxSpeed="11.180000" tau="0.100000" carFollowModel="CACC" color="255,255,255"/>

	<route id="route1_2" edges=" 1 -2"/>
	<route id="route1_3" edges=" 1 -3"/>
	<route id="route1_4" edges=" 1 -4"/>
	<route id="route2_1" edges=" 2 -1"/>
	<route id="route2_3" edges=" 2 -3"/>
	<route id="route2_4" edges=" 2 -4"/>
	<route id="route3_1" edges=" 3 -1"/>
	<route id="route3_2" edges=" 3 -2"/>
	<route id="route3_4" edges=" 3 -4"/>
	<route id="route4_1" edges=" 4 -1"/>
	<route id="route4_2" edges=" 4 -2"/>
	<route id="route4_3" edges=" 4 -3"/>

	<vehicle id="R_0" type="car5" route="route3_2" depart="1" departLane = "1" departSpeed="11.180000"/>
	<vehicle id="S_1" type="car5" route="route3_1" depart="8" departLane = "0" departSpeed="11.180000"/>
	<vehicle id="L_2" type="car7" route="route4_1" depart="10" departLane = "1" departSpeed="11.180000"/>
	<vehicle id="L_3" type="car8" route="route2_3" depart="12" departLane = "0" departSpeed="11.180000"/>
	<vehicle id="S_4" type="car9" route="route3_1" depart="20" departLane = "2" departSpeed="11.180000"/>
	<vehicle id="L_5" type="car6" route="route4_1" depart="21" departLane = "2" departSpeed="11.180000"/>
	<vehicle id="R_6" type="car9" route="route2_1" depart="22" departLane = "0" departSpeed="11.180000"/>
	<vehicle id="S_7" type="car6" route="route4_2" depart="26" departLane = "2" departSpeed="11.180000"/>
	<vehicle id="S_8" type="car7" route="route2_4" depart="28" departLane = "2" departSpeed="11.180000"/>
	<vehicle id="S_9" type="car7" route="route2_4" depart="29" departLane = "0" departSpeed="11.180000"/>
	<vehicle id="S_10" type="car5" route="route4_2" depart="29" departLane = "1" departSpeed="11.180000"/>
	<vehicle id="L_11" type="car7" route="route2_3" depart="32" departLane = "1" departSpeed="11.180000"/>
	<vehicle id="S_12" type="car5" route="route4_2" depart="34" departLane = "0" departSpeed="11.180000"/>
	<vehicle id="S_13" type="car5" route="route3_1" depart="36" departLane = "1" departSpeed="11.180000"/>
	<vehicle id="L_14" type="car7" route="route1_2" depart="42" departLane = "0" departSpeed="11.180000"/>
	<vehicle id="S_15" type="car8" route="route1_3" depart="56" departLane = "1" departSpeed="11.180000"/>
	<vehicle id="L_16" type="car5" route="route2_3" depart="57" departLane = "0" departSpeed="11.180000"/>
	<vehicle id="R_17" type="car9" route="route3_2" depart="57" departLane = "0" departSpeed="11.180000"/>
	<vehicle id="S_18" type="car8" route="route2_4" depart="61" departLane = "0" departSpeed="11.180000"/>
	<vehicle id="R_19" type="car7" route="route4_3" depart="61" departLane = "2" departSpeed="11.180000"/>
	<vehicle id="S_20" type="car9" route="route3_1" depart="63" departLane = "2" departSpeed="11.180000"/>
	<vehicle id="S_21" type="car9" route="route2_4" depart="65" departLane = "0" departSpeed="11.180000"/>
	<vehicle id="S_22" type="car6" route="route3_1" depart="67" departLane = "1" departSpeed="11.180000"/>
	<vehicle id="R_23" type="car9" route="route4_3" depart="70" departLane = "1" departSpeed="11.180000"/>
	<vehicle id="S_24" type="car7" route="route2_4" depart="71" departLane = "1" departSpeed="11.180000"/>
	<vehicle id="S_25" type="car8" route="route2_4" depart="74" departLane = "1" departSpeed="11.180000"/>
	<vehicle id="L_26" type="car6" route="route1_2" depart="82" departLane = "1" departSpeed="11.180000"/>
	<vehicle id="R_27" type="car9" route="route3_2" depart="82" departLane = "2" departSpeed="11.180000"/>
	<vehicle id="S_28" type="car5" route="route4_2" depart="83" departLane = "0" departSpeed="11.180000"/>
	<vehicle id="S_29" type="car6" route="route2_4" depart="93" departLane = "2" departSpeed="11.180000"/>
	<vehicle id="L_30" type="car9" route="route3_4" depart="93" departLane = "1" departSpeed="11.180000"/>
	<vehicle id="R_31" type="car7" route="route1_4" depart="106" departLane = "2" departSpeed="11.180000"/>
	<vehicle id="R_32" type="car7" route="route4_3" depart="107" departLane = "0" departSpeed="11.180000"/>
	<vehicle id="S_33" type="car8" route="route2_4" depart="118" departLane = "0" departSpeed="11.180000"/>
	<vehicle id="L_34" type="car8" route="route4_1" depart="130" departLane = "2" departSpeed="11.180000"/>
	<vehicle id="S_35" type="car8" route="route4_2" depart="131" departLane = "0" departSpeed="11.180000"/>
	<vehicle id="S_36" type="car9" route="route3_1" depart="132" departLane = "0" departSpeed="11.180000"/>
	<vehicle id="R_37" type="car6" route="route4_3" depart="132" departLane = "2" departSpeed="11.180000"/>
	<vehicle id="R_38" type="car9" route="route3_2" depart="140" departLane = "0" departSpeed="11.180000"/>
	<vehicle id="R_39" type="car6" route="route4_3" depart="143" departLane = "2" departSpeed="11.180000"/>
	<vehicle id="L_40" type="car5" route="route3_4" depart="148" departLane = "0" departSpeed="11.180000"/>
	<vehicle id="S_41" type="car9" route="route4_2" depart="152" departLane = "0" departSpeed="11.180000"/>
	<vehicle id="L_42" type="car5" route="route1_2" depart="164" departLane = "0" departSpeed="11.180000"/>
	<vehicle id="S_43" type="car7" route="route2_4" depart="167" departLane = "0" departSpeed="11.180000"/>
	<vehicle id="R_44" type="car9" route="route2_1" depart="172" departLane = "0" departSpeed="11.180000"/>
	<vehicle id="R_45" type="car8" route="route1_4" depart="180" departLane = "1" departSpeed="11.180000"/>
	<vehicle id="L_46" type="car8" route="route3_4" depart="187" departLane = "2" departSpeed="11.180000"/>
	<vehicle id="S_47" type="car7" route="route2_4" depart="190" departLane = "0" departSpeed="11.180000"/>
	<vehicle id="L_48" type="car6" route="route3_4" depart="196" departLane = "2" departSpeed="11.180000"/>
	<vehicle id="S_49" type="car7" route="route4_2" depart="196" departLane = "0" departSpeed="11.180000"/>
	<vehicle id="L_50" type="car8" route="route3_4" depart="199" departLane = "1" departSpeed="11.180000"/>
	<vehicle id="R_51" type="car6" route="route1_4" depart="209" departLane = "0" departSpeed="11.180000"/>
	<vehicle id="L_52" type="car6" route="route4_1" depart="209" departLane = "1" departSpeed="11.180000"/>
	<vehicle id="L_53" type="car5" route="route3_4" depart="213" departLane = "2" departSpeed="11.180000"/>
	<vehicle id="R_54" type="car5" route="route2_1" depart="218" departLane = "1" departSpeed="11.180000"/>
	<vehicle id="S_55" type="car9" route="route2_4" depart="221" departLane = "2" departSpeed="11.180000"/>
	<vehicle id="S_56" type="car9" route="route3_1" depart="222" departLane = "1" departSpeed="11.180000"/>
	<vehicle id="S_57" type="car7" route="route3_1" depart="228" departLane = "2" departSpeed="11.180000"/>
	<vehicle id="R_58" type="car6" route="route2_1" depart="234" departLane = "2" departSpeed="11.180000"/>
	<vehicle id="S_59" type="car6" route="route4_2" depart="236" departLane = "2" departSpeed="11.180000"/>
	<vehicle id="S_60" type="car9" route="route1_3" depart="239" departLane = "2" departSpeed="11.180000"/>
	<vehicle id="R_61" type="car9" route="route4_3" depart="239" departLane = "0" departSpeed="11.180000"/>
	<vehicle id="R_62" type="car5" route="route3_2" depart="241" departLane = "0" departSpeed="11.180000"/>
	<vehicle id="L_63" type="car9" route="route4_1" depart="242" departLane = "0" departSpeed="11.180000"/>
	<vehicle id="R_64" type="car7" route="route3_2" depart="244" departLane = "2" departSpeed="11.180000"/>
	<vehicle id="S_65" type="car6" route="route3_1" depart="246" departLane = "2" departSpeed="11.180000"/>
	<vehicle id="S_66" type="car6" route="route1_3" depart="255" departLane = "1" departSpeed="11.180000"/>
	<vehicle id="R_67" type="car6" route="route4_3" depart="256" departLane = "1" departSpeed="11.180000"/>
	<vehicle id="S_68" type="car5" route="route4_2" depart="262" departLane = "0" departSpeed="11.180000"/>
	<vehicle id="L_69" type="car5" route="route2_3" depart="270" departLane = "0" departSpeed="11.180000"/>
	<vehicle id="L_70" type="car9" route="route4_1" depart="270" departLane = "0" departSpeed="11.180000"/>
	<vehicle id="L_71" type="car8" route="route1_2" depart="271" departLane = "1" departSpeed="11.180000"/>
	<vehicle id="S_72" type="car6" route="route3_1" depart="276" departLane = "1" departSpeed="11.180000"/>
	<vehicle id="L_73" type="car8" route="route4_1" depart="277" departLane = "1" departSpeed="11.180000"/>
	<vehicle id="R_74" type="car7" route="route4_3" depart="278" departLane = "0" departSpeed="11.180000"/>
	<vehicle id="R_75" type="car9" route="route3_2" depart="279" departLane = "1" departSpeed="11.180000"/>
	<vehicle id="L_76" type="car5" route="route3_4" depart="287" departLane = "2" departSpeed="11.180000"/>
	<vehicle id="R_77" type="car6" route="route1_4" depart="288" departLane = "2" departSpeed="11.180000"/>
	<vehicle id="S_78" type="car6" route="route1_3" depart="291" departLane = "2" departSpeed="11.180000"/>
	<vehicle id="S_79" type="car7" route="route2_4" depart="291" departLane = "0" departSpeed="11.180000"/>
	<vehicle id="L_80" type="car9" route="route3_4" depart="291" departLane = "1" departSpeed="11.180000"/>
	<vehicle id="R_81" type="car8" route="route2_1" depart="296" departLane = "1" departSpeed="11.180000"/>
	<vehicle id="R_82" type="car7" route="route1_4" depart="303" departLane = "1" departSpeed="11.180000"/>
	<vehicle id="R_83" type="car9" route="route1_4" depart="311" departLane = "1" departSpeed="11.180000"/>
	<vehicle id="L_84" type="car7" route="route1_2" depart="315" departLane = "1" departSpeed="11.180000"/>
	<vehicle id="S_85" type="car9" route="route3_1" depart="319" departLane = "0" departSpeed="11.180000"/>
	<vehicle id="L_86" type="car7" route="route1_2" depart="322" departLane = "0" departSpeed="11.180000"/>
	<vehicle id="R_87" type="car8" route="route1_4" depart="326" departLane = "2" departSpeed="11.180000"/>
	<vehicle id="L_88" type="car5" route="route2_3" depart="333" departLane = "0" departSpeed="11.180000"/>
	<vehicle id="S_89" type="car7" route="route4_2" depart="333" departLane = "0" departSpeed="11.180000"/>
	<vehicle id="L_90" type="car7" route="route3_4" depart="337" departLane = "1" departSpeed="11.180000"/>
	<vehicle id="R_91" type="car9" route="route1_4" depart="339" departLane = "2" departSpeed="11.180000"/>
	<vehicle id="L_92" type="car5" route="route2_3" depart="345" departLane = "2" departSpeed="11.180000"/>
	<vehicle id="R_93" type="car7" route="route4_3" depart="345" departLane = "0" departSpeed="11.180000"/>
	<vehicle id="R_94" type="car5" route="route1_4" depart="346" departLane = "2" departSpeed="11.180000"/>
	<vehicle id="S_95" type="car6" route="route3_1" depart="348" departLane = "2" departSpeed="11.180000"/>
	<vehicle id="L_96" type="car6" route="route3_4" depart="351" departLane = "0" departSpeed="11.180000"/>
	<vehicle id="R_97" type="car6" route="route2_1" depart="355" departLane = "1" departSpeed="11.180000"/>
	<vehicle id="L_98" type="car7" route="route1_2" depart="357" departLane = "1" departSpeed="11.180000"/>
	<vehicle id="S_99" type="car7" route="route2_4" depart="358" departLane = "0" departSpeed="11.180000"/>
	<vehicle id="R_100" type="car8" route="route1_4" depart="368" departLane = "2" departSpeed="11.180000"/>
	<vehicle id="L_101" type="car5" route="route3_4" depart="372" departLane = "2" departSpeed="11.180000"/>
	<vehicle id="L_102" type="car9" route="route3_4" depart="377" departLane = "2" departSpeed="11.180000"/>
	<vehicle id="R_103" type="car5" route="route3_2" depart="382" departLane = "2" departSpeed="11.180000"/>
	<vehicle id="S_104" type="car5" route="route3_1" depart="385" departLane = "1" departSpeed="11.180000"/>
	<vehicle id="L_105" type="car5" route="route3_4" depart="390" departLane = "0" departSpeed="11.180000"/>
	<vehicle id="L_106" type="car7" route="route2_3" depart="395" departLane = "2" departSpeed="11.180000"/>
	<vehicle id="R_107" type="car5" route="route1_4" depart="399" departLane = "2" departSpeed="11.180000"/>
	<vehicle id="R_108" type="car8" route="route1_4" depart="401" departLane = "1" departSpeed="11.180000"/>
	<vehicle id="R_109" type="car9" route="route2_1" depart="405" departLane = "2" departSpeed="11.180000"/>
	<vehicle id="L_110" type="car8" route="route3_4" depart="405" departLane = "0" departSpeed="11.180000"/>
	<vehicle id="R_111" type="car6" route="route1_4" depart="416" departLane = "1" departSpeed="11.180000"/>
	<vehicle id="S_112" type="car7" route="route3_1" depart="416" departLane = "0" departSpeed="11.180000"/>
	<vehicle id="L_113" type="car9" route="route2_3" depart="419" departLane = "1" departSpeed="11.180000"/>
	<vehicle id="S_114" type="car8" route="route2_4" depart="423" departLane = "1" departSpeed="11.180000"/>
	<vehicle id="L_115" type="car5" route="route2_3" depart="425" departLane = "0" departSpeed="11.180000"/>
	<vehicle id="S_116" type="car5" route="route2_4" depart="432" departLane = "0" departSpeed="11.180000"/>
	<vehicle id="L_117" type="car7" route="route1_2" depart="433" departLane = "2" departSpeed="11.180000"/>
	<vehicle id="S_118" type="car7" route="route3_1" depart="441" departLane = "0" departSpeed="11.180000"/>
	<vehicle id="L_119" type="car8" route="route4_1" depart="447" departLane = "0" departSpeed="11.180000"/>
	<vehicle id="S_120" type="car6" route="route2_4" depart="451" departLane = "0" departSpeed="11.180000"/>
	<vehicle id="L_121" type="car6" route="route1_2" depart="455" departLane = "2" departSpeed="11.180000"/>
	<vehicle id="L_122" type="car7" route="route3_4" depart="459" departLane = "0" departSpeed="11.180000"/>
	<vehicle id="R_123" type="car5" route="route1_4" depart="461" departLane = "2" departSpeed="11.180000"/>
	<vehicle id="L_124" type="car9" route="route4_1" depart="463" departLane = "1" departSpeed="11.180000"/>
	<vehicle id="L_125" type="car6" route="route4_1" depart="465" departLane = "2" departSpeed="11.180000"/>
	<vehicle id="R_126" type="car8" route="route4_3" depart="474" departLane = "0" departSpeed="11.180000"/>
	<vehicle id="R_127" type="car5" route="route2_1" depart="484" departLane = "2" departSpeed="11.180000"/>
	<vehicle id="S_128" type="car8" route="route3_1" depart="491" departLane = "1" departSpeed="11.180000"/>
	<vehicle id="L_129" type="car5" route="route2_3" depart="495" departLane = "1" departSpeed="11.180000"/>
	<vehicle id="R_130" type="car8" route="route4_3" depart="497" departLane = "1" departSpeed="11.180000"/>
	<vehicle id="L_131" type="car7" route="route2_3" depart="500" departLane = "0" departSpeed="11.180000"/>
	<vehicle id="R_132" type="car9" route="route3_2" depart="501" departLane = "1" departSpeed="11.180000"/>
	<vehicle id="L_133" type="car9" route="route1_2" depart="504" departLane = "1" departSpeed="11.180000"/>
	<vehicle id="S_134" type="car5" route="route4_2" depart="514" departLane = "0" departSpeed="11.180000"/>
	<vehicle id="S_135" type="car6" route="route3_1" depart="523" departLane = "0" departSpeed="11.180000"/>
	<vehicle id="L_136" type="car9" route="route2_3" depart="538" departLane = "1" departSpeed="11.180000"/>
	<vehicle id="R_137" type="car5" route="route1_4" depart="539" departLane = "1" departSpeed="11.180000"/>
	<vehicle id="R_138" type="car9" route="route2_1" depart="539" departLane = "0" departSpeed="11.180000"/>
	<vehicle id="S_139" type="car7" route="route4_2" depart="539" departLane = "1" departSpeed="11.180000"/>
	<vehicle id="S_140" type="car6" route="route1_3" depart="542" departLane = "0" departSpeed="11.180000"/>
	<vehicle id="R_141" type="car8" route="route3_2" depart="543" departLane = "0" departSpeed="11.180000"/>
	<vehicle id="R_142" type="car9" route="route4_3" depart="543" departLane = "1" departSpeed="11.180000"/>
	<vehicle id="L_143" type="car5" route="route2_3" depart="564" departLane = "0" departSpeed="11.180000"/>
	<vehicle id="L_144" type="car5" route="route3_4" depart="564" departLane = "0" departSpeed="11.180000"/>
	<vehicle id="S_145" type="car7" route="route4_2" depart="564" departLane = "0" departSpeed="11.180000"/>
	<vehicle id="S_146" type="car7" route="route2_4" depart="566" departLane = "2" departSpeed="11.180000"/>
	<vehicle id="L_147" type="car9" route="route3_4" depart="567" departLane = "2" departSpeed="11.180000"/>
	<vehicle id="S_148" type="car5" route="route1_3" depart="574" departLane = "1" departSpeed="11.180000"/>
	<vehicle id="L_149" type="car6" route="route4_1" depart="587" departLane = "2" departSpeed="11.180000"/>
	<vehicle id="L_150" type="car8" route="route3_4" depart="589" departLane = "1" departSpeed="11.180000"/>
	<vehicle id="L_151" type="car6" route="route3_4" depart="595" departLane = "1" departSpeed="11.180000"/>
	<vehicle id="R_152" type="car5" route="route4_3" depart="596" departLane = "1" departSpeed="11.180000"/>
	<vehicle id="R_153" type="car8" route="route4_3" depart="602" departLane = "0" departSpeed="11.180000"/>
	<vehicle id="S_154" type="car7" route="route2_4" depart="605" departLane = "1" departSpeed="11.180000"/>
	<vehicle id="R_155" type="car7" route="route2_1" depart="612" departLane = "2" departSpeed="11.180000"/>
	<vehicle id="L_156" type="car8" route="route2_3" depart="613" departLane = "2" departSpeed="11.180000"/>
	<vehicle id="L_157" type="car6" route="route4_1" depart="623" departLane = "0" departSpeed="11.180000"/>
	<vehicle id="S_158" type="car8" route="route1_3" depart="627" departLane = "1" departSpeed="11.180000"/>
	<vehicle id="R_159" type="car7" route="route1_4" depart="631" departLane = "1" departSpeed="11.180000"/>
	<vehicle id="R_160" type="car6" route="route3_2" depart="631" departLane = "2" departSpeed="11.180000"/>
	<vehicle id="R_161" type="car8" route="route2_1" depart="637" departLane = "2" departSpeed="11.180000"/>
	<vehicle id="S_162" type="car9" route="route3_1" depart="648" departLane = "1" departSpeed="11.180000"/>
	<vehicle id="S_163" type="car6" route="route1_3" depart="651" departLane = "1" departSpeed="11.180000"/>
	<vehicle id="R_164" type="car5" route="route1_4" depart="652" departLane = "0" departSpeed="11.180000"/>
	<vehicle id="L_165" type="car6" route="route4_1" depart="654" departLane = "1" departSpeed="11.180000"/>
	<vehicle id="R_166" type="car9" route="route1_4" depart="655" departLane = "1" departSpeed="11.180000"/>
	<vehicle id="L_167" type="car7" route="route2_3" depart="658" departLane = "1" departSpeed="11.180000"/>
	<vehicle id="L_168" type="car7" route="route1_2" depart="660" departLane = "2" departSpeed="11.180000"/>
	<vehicle id="S_169" type="car7" route="route1_3" depart="664" departLane = "0" departSpeed="11.180000"/>
	<vehicle id="L_170" type="car9" route="route2_3" depart="664" departLane = "1" departSpeed="11.180000"/>
	<vehicle id="L_171" type="car9" route="route1_2" depart="668" departLane = "0" departSpeed="11.180000"/>
	<vehicle id="S_172" type="car5" route="route3_1" depart="670" departLane = "2" departSpeed="11.180000"/>
	<vehicle id="L_173" type="car5" route="route3_4" depart="671" departLane = "1" departSpeed="11.180000"/>
	<vehicle id="S_174" type="car9" route="route4_2" depart="676" departLane = "2" departSpeed="11.180000"/>
	<vehicle id="S_175" type="car8" route="route4_2" depart="678" departLane = "0" departSpeed="11.180000"/>
	<vehicle id="L_176" type="car8" route="route2_3" depart="680" departLane = "1" departSpeed="11.180000"/>
	<vehicle id="S_177" type="car5" route="route3_1" depart="687" departLane = "0" departSpeed="11.180000"/>
	<vehicle id="S_178" type="car6" route="route4_2" depart="687" departLane = "0" departSpeed="11.180000"/>
	<vehicle id="R_179" type="car6" route="route3_2" depart="690" departLane = "2" departSpeed="11.180000"/>
	<vehicle id="S_180" type="car8" route="route4_2" depart="693" departLane = "1" departSpeed="11.180000"/>
	<vehicle id="S_181" type="car9" route="route3_1" depart="694" departLane = "2" departSpeed="11.180000"/>
	<vehicle id="L_182" type="car7" route="route1_2" depart="698" departLane = "0" departSpeed="11.180000"/>
	<vehicle id="R_183" type="car9" route="route2_1" depart="698" departLane = "1" departSpeed="11.180000"/>
	<vehicle id="R_184" type="car8" route="route1_4" depart="701" departLane = "2" departSpeed="11.180000"/>
	<vehicle id="R_185" type="car6" route="route2_1" depart="708" departLane = "1" departSpeed="11.180000"/>
	<vehicle id="L_186" type="car5" route="route2_3" depart="709" departLane = "1" departSpeed="11.180000"/>
	<vehicle id="R_187" type="car7" route="route4_3" depart="709" departLane = "1" departSpeed="11.180000"/>
	<vehicle id="L_188" type="car6" route="route1_2" depart="716" departLane = "2" departSpeed="11.180000"/>
	<vehicle id="R_189" type="car5" route="route4_3" depart="722" departLane = "0" departSpeed="11.180000"/>
	<vehicle id="L_190" type="car9" route="route1_2" depart="731" departLane = "1" departSpeed="11.180000"/>
	<vehicle id="S_191" type="car8" route="route2_4" depart="737" departLane = "2" departSpeed="11.180000"/>
	<vehicle id="L_192" type="car6" route="route1_2" depart="742" departLane = "2" departSpeed="11.180000"/>
	<vehicle id="S_193" type="car7" route="route3_1" depart="742" departLane = "1" departSpeed="11.180000"/>
	<vehicle id="L_194" type="car9" route="route2_3" depart="755" departLane = "2" departSpeed="11.180000"/>
	<vehicle id="L_195" type="car8" route="route4_1" depart="755" departLane = "1" departSpeed="11.180000"/>
	<vehicle id="R_196" type="car6" route="route3_2" depart="764" departLane = "0" departSpeed="11.180000"/>
	<vehicle id="S_197" type="car8" route="route2_4" depart="767" departLane = "2" departSpeed="11.180000"/>
	<vehicle id="R_198" type="car8" route="route2_1" depart="772" departLane = "1" departSpeed="11.180000"/>
	<vehicle id="S_199" type="car6" route="route4_2" depart="772" departLane = "0" departSpeed="11.180000"/>
	<vehicle id="R_200" type="car9" route="route3_2" depart="775" departLane = "0" departSpeed="11.180000"/>
	<vehicle id="L_201" type="car5" route="route2_3" depart="787" departLane = "1" departSpeed="11.180000"/>
	<vehicle id="L_202" type="car5" route="route4_1" depart="790" departLane = "1" departSpeed="11.180000"/>
	<vehicle id="L_203" type="car6" route="route2_3" depart="796" departLane = "2" departSpeed="11.180000"/>
	<vehicle id="S_204" type="car8" route="route4_2" depart="796" departLane = "2" departSpeed="11.180000"/>
	<vehicle id="R_205" type="car6" route="route1_4" depart="797" departLane = "1" departSpeed="11.180000"/>
	<vehicle id="S_206" type="car6" route="route3_1" depart="797" departLane = "1" departSpeed="11.180000"/>
	<vehicle id="S_207" type="car7" route="route2_4" depart="798" departLane = "1" departSpeed="11.180000"/>
	<vehicle id="R_208" type="car9" route="route2_1" depart="803" departLane = "1" departSpeed="11.180000"/>
	<vehicle id="L_209" type="car5" route="route4_1" depart="813" departLane = "2" departSpeed="11.180000"/>
	<vehicle id="R_210" type="car7" route="route1_4" depart="819" departLane = "2" departSpeed="11.180000"/>
	<vehicle id="S_211" type="car8" route="route1_3" depart="826" departLane = "0" departSpeed="11.180000"/>
	<vehicle id="R_212" type="car8" route="route1_4" depart="834" departLane = "2" departSpeed="11.180000"/>
	<vehicle id="L_213" type="car9" route="route2_3" depart="836" departLane = "2" departSpeed="11.180000"/>
	<vehicle id="L_214" type="car9" route="route4_1" depart="840" departLane = "1" departSpeed="11.180000"/>
	<vehicle id="S_215" type="car7" route="route1_3" depart="841" departLane = "2" departSpeed="11.180000"/>
	<vehicle id="S_216" type="car7" route="route1_3" depart="843" departLane = "2" departSpeed="11.180000"/>
	<vehicle id="S_217" type="car9" route="route2_4" depart="843" departLane = "1" departSpeed="11.180000"/>
	<vehicle id="S_218" type="car8" route="route4_2" depart="852" departLane = "0" departSpeed="11.180000"/>
	<vehicle id="S_219" type="car5" route="route1_3" depart="859" departLane = "2" departSpeed="11.180000"/>
	<vehicle id="L_220" type="car5" route="route1_2" depart="860" departLane = "2" departSpeed="11.180000"/>
	<vehicle id="S_221" type="car9" route="route2_4" depart="861" departLane = "1" departSpeed="11.180000"/>
	<vehicle id="R_222" type="car9" route="route1_4" depart="863" departLane = "0" departSpeed="11.180000"/>
	<vehicle id="R_223" type="car5" route="route1_4" depart="864" departLane = "1" departSpeed="11.180000"/>
	<vehicle id="R_224" type="car6" route="route4_3" depart="864" departLane = "0" departSpeed="11.180000"/>
	<vehicle id="L_225" type="car7" route="route1_2" depart="869" departLane = "0" departSpeed="11.180000"/>
	<vehicle id="S_226" type="car9" route="route2_4" depart="881" departLane = "2" departSpeed="11.180000"/>
	<vehicle id="R_227" type="car7" route="route1_4" depart="885" departLane = "1" departSpeed="11.180000"/>
	<vehicle id="S_228" type="car8" route="route2_4" depart="886" departLane = "1" departSpeed="11.180000"/>
	<vehicle id="L_229" type="car5" route="route4_1" depart="888" departLane = "2" departSpeed="11.180000"/>
	<vehicle id="R_230" type="car7" route="route1_4" depart="917" departLane = "0" departSpeed="11.180000"/>
	<vehicle id="S_231" type="car6" route="route4_2" depart="919" departLane = "1" departSpeed="11.180000"/>
	<vehicle id="R_232" type="car6" route="route4_3" depart="921" departLane = "2" departSpeed="11.180000"/>
	<vehicle id="S_233" type="car7" route="route4_2" depart="928" departLane = "1" departSpeed="11.180000"/>
	<vehicle id="L_234" type="car5" route="route4_1" depart="930" departLane = "1" departSpeed="11.180000"/>
	<vehicle id="L_235" type="car8" route="route3_4" depart="931" departLane = "2" departSpeed="11.180000"/>
	<vehicle id="S_236" type="car5" route="route2_4" depart="938" departLane = "2" departSpeed="11.180000"/>
	<vehicle id="S_237" type="car9" route="route4_2" depart="938" departLane = "0" departSpeed="11.180000"/>
	<vehicle id="S_238" type="car6" route="route3_1" depart="941" departLane = "2" departSpeed="11.180000"/>
	<vehicle id="S_239" type="car9" route="route4_2" depart="941" departLane = "0" departSpeed="11.180000"/>
	<vehicle id="L_240" type="car8" route="route2_3" depart="951" departLane = "2" departSpeed="11.180000"/>
	<vehicle id="R_241" type="car9" route="route3_2" depart="952" departLane = "2" departSpeed="11.180000"/>
	<vehicle id="R_242" type="car5" route="route2_1" depart="954" departLane = "2" departSpeed="11.180000"/>
	<vehicle id="S_243" type="car5" route="route1_3" depart="958" departLane = "0" departSpeed="11.180000"/>
	<vehicle id="L_244" type="car7" route="route2_3" depart="958" departLane = "0" departSpeed="11.180000"/>
	<vehicle id="S_245" type="car9" route="route2_4" depart="959" departLane = "2" departSpeed="11.180000"/>
	<vehicle id="S_246" type="car5" route="route2_4" depart="960" departLane = "2" departSpeed="11.180000"/>
	<vehicle id="S_247" type="car6" route="route1_3" depart="963" departLane = "0" departSpeed="11.180000"/>
	<vehicle id="S_248" type="car9" route="route2_4" depart="963" departLane = "2" departSpeed="11.180000"/>
	<vehicle id="L_249" type="car9" route="route4_1" depart="963" departLane = "2" departSpeed="11.180000"/>
	<vehicle id="L_250" type="car6" route="route2_3" depart="968" departLane = "1" departSpeed="11.180000"/>
	<vehicle id="S_251" type="car9" route="route2_4" depart="981" departLane = "2" departSpeed="11.180000"/>
	<vehicle id="L_252" type="car6" route="route1_2" depart="991" departLane = "2" departSpeed="11.180000"/>
	<vehicle id="R_253" type="car6" route="route4_3" depart="992" departLane = "1" departSpeed="11.180000"/>
	<vehicle id="S_254" type="car5" route="route2_4" depart="1000" departLane = "1" departSpeed="11.180000"/>
	<vehicle id="R_255" type="car6" route="route3_2" depart="1005" departLane = "1" departSpeed="11.180000"/>
	<vehicle id="R_256" type="car5" route="route3_2" depart="1015" departLane = "1" departSpeed="11.180000"/>
	<vehicle id="R_257" type="car6" route="route3_2" depart="1019" departLane = "0" departSpeed="11.180000"/>
	<vehicle id="L_258" type="car9" route="route4_1" depart="1019" departLane = "2" departSpeed="11.180000"/>
	<vehicle id="R_259" type="car7" route="route3_2" depart="1021" departLane = "2" departSpeed="11.180000"/>
	<vehicle id="S_260" type="car8" route="route4_2" depart="1021" departLane = "0" departSpeed="11.180000"/>
	<vehicle id="R_261" type="car7" route="route2_1" depart="1027" departLane = "0" departSpeed="11.180000"/>
	<vehicle id="S_262" type="car6" route="route3_1" depart="1029" departLane = "2" departSpeed="11.180000"/>
	<vehicle id="L_263" type="car5" route="route2_3" depart="1030" departLane = "2" departSpeed="11.180000"/>
	<vehicle id="L_264" type="car9" route="route1_2" depart="1037" departLane = "2" departSpeed="11.180000"/>
	<vehicle id="S_265" type="car9" route="route2_4" depart="1040" departLane = "2" departSpeed="11.180000"/>
	<vehicle id="R_266" type="car8" route="route1_4" depart="1044" departLane = "1" departSpeed="11.180000"/>
	<vehicle id="S_267" type="car5" route="route3_1" depart="1047" departLane = "0" departSpeed="11.180000"/>
	<vehicle id="S_268" type="car9" route="route4_2" depart="1055" departLane = "2" departSpeed="11.180000"/>
	<vehicle id="S_269" type="car8" route="route4_2" depart="1058" departLane = "0" departSpeed="11.180000"/>
	<vehicle id="R_270" type="car6" route="route1_4" depart="1062" departLane = "1" departSpeed="11.180000"/>