<routes>

	<vType id="car5" accel="100.0" decel="100.0" sigma="0.0" length="5" minGap="3.000000" maxSpeed="11.180000" tau="0.100000" carFollowModel="CACC" color="255,255,255"/>
	<vType id="car6" accel="100.0" decel="100.0" sigma="0.0" length="6" minGap="3.000000" maxSpeed="11.180000" tau="0.100000" carFollowModel="CACC" color="255,255,255"/>
	<vType id="car7" accel="100.0" decel="100.0" sigma="0.0" length="7" minGap="3.000000" maxSpeed="11.180000" tau="0.100000" carFollowModel="CACC" color="255,255,255"/>
	<vType id="car8" accel="100.0" decel="100.0" sigma="0.0" length="8" minGap="3.000000" maxSpeed="11.180000" tau="0.100000" carFollowModel="CACC" color="255,255,255"/>
	<vType id="car9" accel="100.0" decel="100.0" sigma="0.0" length="9" minGap="3.000000" maxSpeed="11.180000" tau="0.100000" carFollowModel="CACC" color="255,255,255"/>

	<route id="route1_2" edges=" 1 -2"/>
	<route id="route1_3" edges=" 1 -3"/>
	<route id="route1_4" edges=" 1 -4"/>
	<route id="route2_1" edges=" 2 -1"/>
	<route id="route2_3" edges=" 2 -3"/>
	<route id="route2_4" edges=" 2 -4"/>
	<route id="route3_1" edges=" 3 -1"/>
	<route id="route3_2" edges=" 3 -2"/>
	<route id="route3_4" edges=" 3 -4"/>
	<route id="route4_1" edges=" 4 -1"/>
	<route id="route4_2" edges=" 4 -2"/>
	<route id="route4_3" edges=" 4 -3"/>

	<vehicle id="R_0" type="car8" route="route1_4" depart="0" departLane = "0" departSpeed="11.180000"/>
	<vehicle id="S_1" type="car5" route="route2_4" depart="0" departLane = "0" departSpeed="11.180000"/>
	<vehicle id="R_2" type="car7" route="route3_2" depart="0" departLane = "2" departSpeed="11.180000"/>
	<vehicle id="R_3" type="car7" route="route2_1" depart="1" departLane = "2" departSpeed="11.180000"/>
	<vehicle id="R_4" type="car5" route="route3_2" depart="1" departLane = "0" departSpeed="11.180000"/>
	<vehicle id="L_5" type="car7" route="route4_1" depart="1" departLane = "0" departSpeed="11.180000"/>
	<vehicle id="R_6" type="car7" route="route2_1" depart="2" departLane = "1" departSpeed="11.180000"/>
	<vehicle id="L_7" type="car7" route="route3_4" depart="2" departLane = "2" departSpeed="11.180000"/>
	<vehicle id="L_8" type="car7" route="route4_1" depart="2" departLane = "2" departSpeed="11.180000"/>
	<vehicle id="S_9" type="car6" route="route1_3" depart="3" departLane = "2" departSpeed="11.180000"/>
	<vehicle id="R_10" type="car7" route="route2_1" depart="3" departLane = "1" departSpeed="11.180000"/>
	<vehicle id="L_11" type="car7" route="route3_4" depart="3" departLane = "2" departSpeed="11.180000"/>
	<vehicle id="R_12" type="car9" route="route4_3" depart="3" departLane = "1" departSpeed="11.180000"/>
	<vehicle id="R_13" type="car9" route="route1_4" depart="4" departLane = "1" departSpeed="11.180000"/>
	<vehicle id="L_14" type="car9" route="route2_3" depart="4" departLane = "1" departSpeed="11.180000"/>
	<vehicle id="S_15" type="car6" route="route3_1" depart="4" departLane = "1" departSpeed="11.180000"/>
	<vehicle id="L_16" type="car5" route="route4_1" depart="4" departLane = "1" departSpeed="11.180000"/>
	<vehicle id="S_17" type="car7" route="route1_3" depart="5" departLane = "1" departSpeed="11.180000"/>
	<vehicle id="L_18" type="car8" route="route2_3" depart="5" departLane = "2" departSpeed="11.180000"/>
	<vehicle id="R_19" type="car6" route="route3_2" depart="5" departLane = "0" departSpeed="11.180000"/>
	<vehicle id="S_20" type="car8" route="route4_2" depart="5" departLane = "0" departSpeed="11.180000"/>
	<vehicle id="R_21" type="car8" route="route1_4" depart="6" departLane = "1" departSpeed="11.180000"/>
	<vehicle id="R_22" type="car6" route="route3_2" depart="6" departLane = "2" departSpeed="11.180000"/>
	<vehicle id="R_23" type="car6" route="route1_4" depart="7" departLane = "0" departSpeed="11.180000"/>
	<vehicle id="L_24" type="car9" route="route2_3" depart="7" departLane = "2" departSpeed="11.180000"/>
	<vehicle id="L_25" type="car7" route="route4_1" depart="7" departLane = "0" departSpeed="11.180000"/>
	<vehicle id="S_26" type="car7" route="route1_3" depart="8" departLane = "0" departSpeed="11.180000"/>
	<vehicle id="L_27" type="car7" route="route2_3" depart="8" departLane = "1" departSpeed="11.180000"/>
	<vehicle id="R_28" type="car7" route="route3_2" depart="8" departLane = "1" departSpeed="11.180000"/>
	<vehicle id="S_29" type="car5" route="route2_4" depart="9" departLane = "2" departSpeed="11.180000"/>
	<vehicle id="S_30" type="car8" route="route3_1" depart="9" departLane = "0" departSpeed="11.180000"/>
	<vehicle id="R_31" type="car8" route="route4_3" depart="9" departLane = "1" departSpeed="11.180000"/>
	<vehicle id="S_32" type="car7" route="route1_3" depart="10" departLane = "0" departSpeed="11.180000"/>
	<vehicle id="L_33" type="car5" route="route2_3" depart="10" departLane = "1" departSpeed="11.180000"/>
	<vehicle id="L_34" type="car7" route="route3_4" depart="10" departLane = "1" departSpeed="11.180000"/>
	<vehicle id="S_35" type="car6" route="route1_3" depart="11" departLane = "1" departSpeed="11.180000"/>
	<vehicle id="S_36" type="car5" route="route2_4" depart="11" departLane = "0" departSpeed="11.180000"/>
	<vehicle id="S_37" type="car6" route="route3_1" depart="11" departLane = "0" departSpeed="11.180000"/>
	<vehicle id="S_38" type="car9" route="route4_2" depart="11" departLane = "0" departSpeed="11.180000"/>
	<vehicle id="S_39" type="car9" route="route1_3" depart="12" departLane = "1" departSpeed="11.180000"/>
	<vehicle id="S_40" type="car5" route="route2_4" depart="12" departLane = "0" departSpeed="11.180000"/>
	<vehicle id="S_41" type="car6" route="route4_2" depart="12" departLane = "1" departSpeed="11.180000"/>
	<vehicle id="R_42" type="car8" route="route1_4" depart="13" departLane = "0" departSpeed="11.180000"/>
	<vehicle id="L_43" type="car6" route="route2_3" depart="13" departLane = "0" departSpeed="11.180000"/>
	<vehicle id="S_44" type="car8" route="route3_1" depart="13" departLane = "0" departSpeed="11.180000"/>
	<vehicle id="S_45" type="car5" route="route1_3" depart="14" departLane = "0" departSpeed="11.180000"/>
	<vehicle id="R_46" type="car9" route="route2_1" depart="14" departLane = "0" departSpeed="11.180000"/>
	<vehicle id="L_47" type="car8" route="route3_4" depart="14" departLane = "0" departSpeed="11.180000"/>
	<vehicle id="S_48" type="car7" route="route1_3" depart="15" departLane = "0" departSpeed="11.180000"/>
	<vehicle id="S_49" type="car8" route="route2_4" depart="15" departLane = "2" departSpeed="11.180000"/>
	<vehicle id="R_50" type="car5" route="route4_3" depart="15" departLane = "2" departSpeed="11.180000"/>
	<vehicle id="S_51" type="car8" route="route1_3" depart="16" departLane = "0" departSpeed="11.180000"/>
	<vehicle id="S_52" type="car6" route="route2_4" depart="16" departLane = "2" departSpeed="11.180000"/>
	<vehicle id="L_53" type="car8" route="route3_4" depart="16" departLane = "2" departSpeed="11.180000"/>
	<vehicle id="S_54" type="car9" route="route1_3" depart="17" departLane = "1" departSpeed="11.180000"/>
	<vehicle id="L_55" type="car7" route="route2_3" depart="17" departLane = "2" departSpeed="11.180000"/>
	<vehicle id="R_56" type="car8" route="route3_2" depart="17" departLane = "1" departSpeed="11.180000"/>
	<vehicle id="S_57" type="car6" route="route4_2" depart="17" departLane = "1" departSpeed="11.180000"/>
	<vehicle id="R_58" type="car6" route="route1_4" depart="18" departLane = "2" departSpeed="11.180000"/>
	<vehicle id="S_59" type="car6" route="route3_1" depart="18" departLane = "0" departSpeed="11.180000"/>
	<vehicle id="R_60" type="car9" route="route4_3" depart="18" departLane = "1" departSpeed="11.180000"/>
	<vehicle id="S_61" type="car8" route="route1_3" depart="19" departLane = "1" departSpeed="11.180000"/>
	<vehicle id="L_62" type="car6" route="route2_3" depart="19" departLane = "0" departSpeed="11.180000"/>
	<vehicle id="S_63" type="car5" route="route4_2" depart="19" departLane = "1" departSpeed="11.180000"/>
	<vehicle id="R_64" type="car6" route="route1_4" depart="20" departLane = "1" departSpeed="11.180000"/>
	<vehicle id="R_65" type="car6" route="route2_1" depart="20" departLane = "0" departSpeed="11.180000"/>
	<vehicle id="S_66" type="car9" route="route3_1" depart="20" departLane = "1" departSpeed="11.180000"/>
	<vehicle id="L_67" type="car8" route="route1_2" depart="21" departLane = "2" departSpeed="11.180000"/>
	<vehicle id="S_68" type="car9" route="route2_4" depart="21" departLane = "0" departSpeed="11.180000"/>
	<vehicle id="L_69" type="car7" route="route3_4" depart="21" departLane = "2" departSpeed="11.180000"/>
	<vehicle id="R_70" type="car5" route="route4_3" depart="21" departLane = "0" departSpeed="11.180000"/>
	<vehicle id="R_71" type="car5" route="route1_4" depart="22" departLane = "2" departSpeed="11.180000"/>
	<vehicle id="S_72" type="car5" route="route2_4" depart="22" departLane = "1" departSpeed="11.180000"/>
	<vehicle id="S_73" type="car8" route="route3_1" depart="22" departLane = "2" departSpeed="11.180000"/>
	<vehicle id="L_74" type="car8" route="route4_1" depart="22" departLane = "1" departSpeed="11.180000"/>
	<vehicle id="S_75" type="car8" route="route1_3" depart="23" departLane = "1" departSpeed="11.180000"/>
	<vehicle id="L_76" type="car9" route="route2_3" depart="23" departLane = "0" departSpeed="11.180000"/>
	<vehicle id="S_77" type="car8" route="route4_2" depart="23" departLane = "1" departSpeed="11.180000"/>
	<vehicle id="S_78" type="car7" route="route3_1" depart="24" departLane = "0" departSpeed="11.180000"/>
	<vehicle id="R_79" type="car9" route="route1_4" depart="25" departLane = "0" departSpeed="11.180000"/>
	<vehicle id="L_80" type="car6" route="route2_3" depart="25" departLane = "0" departSpeed="11.180000"/>
	<vehicle id="L_81" type="car8" route="route3_4" depart="25" departLane = "1" departSpeed="11.180000"/>
	<vehicle id="R_82" type="car6" route="route1_4" depart="26" departLane = "0" departSpeed="11.180000"/>
	<vehicle id="S_83" type="car5" route="route2_4" depart="26" departLane = "1" departSpeed="11.180000"/>
	<vehicle id="S_84" type="car9" route="route3_1" depart="26" departLane = "1" departSpeed="11.180000"/>
	<vehicle id="R_85" type="car9" route="route4_3" depart="26" departLane = "0" departSpeed="11.180000"/>
	<vehicle id="S_86" type="car7" route="route1_3" depart="27" departLane = "1" departSpeed="11.180000"/>
	<vehicle id="R_87" type="car5" route="route2_1" depart="27" departLane = "0" departSpeed="11.180000"/>
	<vehicle id="S_88" type="car7" route="route3_1" depart="27" departLane = "2" departSpeed="11.180000"/>
	<vehicle id="R_89" type="car9" route="route4_3" depart="27" departLane = "1" departSpeed="11.180000"/>
	<vehicle id="R_90" type="car8" route="route1_4" depart="28" departLane = "2" departSpeed="11.180000"/>
	<vehicle id="L_91" type="car8" route="route2_3" depart="28" departLane = "1" departSpeed="11.180000"/>
	<vehicle id="S_92" type="car7" route="route3_1" depart="28" departLane = "2" departSpeed="11.180000"/>
	<vehicle id="R_93" type="car5" route="route1_4" depart="29" departLane = "1" departSpeed="11.180000"/>
	<vehicle id="S_94" type="car9" route="route2_4" depart="29" departLane = "2" departSpeed="11.180000"/>
	<vehicle id="L_95" type="car6" route="route3_4" depart="29" departLane = "1" departSpeed="11.180000"/>
	<vehicle id="S_96" type="car9" route="route4_2" depart="29" departLane = "1" departSpeed="11.180000"/>
	<vehicle id="S_97" type="car6" route="route2_4" depart="30" departLane = "2" departSpeed="11.180000"/>
	<vehicle id="S_98" type="car7" route="route3_1" depart="30" departLane = "1" departSpeed="11.180000"/>
	<vehicle id="S_99" type="car9" route="route4_2" depart="30" departLane = "0" departSpeed="11.180000"/>
	<vehicle id="L_100" type="car7" route="route1_2" depart="31" departLane = "0" departSpeed="11.180000"/>
	<vehicle id="S_101" type="car8" route="route4_2" depart="31" departLane = "2" departSpeed="11.180000"/>
	<vehicle id="S_102" type="car5" route="route1_3" depart="32" departLane = "0" departSpeed="11.180000"/>
	<vehicle id="R_103" type="car6" route="route2_1" depart="32" departLane = "1" departSpeed="11.180000"/>
	<vehicle id="R_104" type="car7" route="route3_2" depart="32" departLane = "2" departSpeed="11.180000"/>
	<vehicle id="S_105" type="car6" route="route1_3" depart="33" departLane = "2" departSpeed="11.180000"/>
	<vehicle id="L_106" type="car7" route="route3_4" depart="33" departLane = "1" departSpeed="11.180000"/>
	<vehicle id="R_107" type="car9" route="route4_3" depart="33" departLane = "1" departSpeed="11.180000"/>
	<vehicle id="R_108" type="car8" route="route1_4" depart="34" departLane = "1" departSpeed="11.180000"/>
	<vehicle id="R_109" type="car7" route="route2_1" depart="34" departLane = "1" departSpeed="11.180000"/>
	<vehicle id="S_110" type="car5" route="route3_1" depart="34" departLane = "2" departSpeed="11.180000"/>
	<vehicle id="L_111" type="car8" route="route4_1" depart="34" departLane = "2" departSpeed="11.180000"/>
	<vehicle id="S_112" type="car7" route="route1_3" depart="35" departLane = "2" departSpeed="11.180000"/>
	<vehicle id="L_113" type="car9" route="route2_3" depart="35" departLane = "1" departSpeed="11.180000"/>
	<vehicle id="R_114" type="car5" route="route3_2" depart="35" departLane = "2" departSpeed="11.180000"/>
	<vehicle id="R_115" type="car7" route="route4_3" depart="35" departLane = "2" departSpeed="11.180000"/>
	<vehicle id="S_116" type="car5" route="route1_3" depart="36" departLane = "1" departSpeed="11.180000"/>
	<vehicle id="R_117" type="car8" route="route3_2" depart="36" departLane = "2" departSpeed="11.180000"/>
	<vehicle id="L_118" type="car5" route="route2_3" depart="37" departLane = "0" departSpeed="11.180000"/>
	<vehicle id="R_119" type="car6" route="route3_2" depart="37" departLane = "0" departSpeed="11.180000"/>
	<vehicle id="S_120" type="car9" route="route4_2" depart="37" departLane = "2" departSpeed="11.180000"/>
	<vehicle id="R_121" type="car7" route="route1_4" depart="38" departLane = "2" departSpeed="11.180000"/>
	<vehicle id="R_122" type="car6" route="route2_1" depart="38" departLane = "0" departSpeed="11.180000"/>
	<vehicle id="R_123" type="car5" route="route4_3" depart="38" departLane = "1" departSpeed="11.180000"/>
	<vehicle id="R_124" type="car7" route="route1_4" depart="39" departLane = "0" departSpeed="11.180000"/>
	<vehicle id="L_125" type="car6" route="route2_3" depart="39" departLane = "2" departSpeed="11.180000"/>
	<vehicle id="L_126" type="car8" route="route3_4" depart="39" departLane = "2" departSpeed="11.180000"/>
	<vehicle id="S_127" type="car7" route="route2_4" depart="40" departLane = "2" departSpeed="11.180000"/>
	<vehicle id="L_128" type="car9" route="route3_4" depart="40" departLane = "2" departSpeed="11.180000"/>
	<vehicle id="S_129" type="car6" route="route4_2" depart="40" departLane = "1" departSpeed="11.180000"/>
	<vehicle id="S_130" type="car8" route="route1_3" depart="41" departLane = "1" departSpeed="11.180000"/>
	<vehicle id="S_131" type="car6" route="route2_4" depart="41" departLane = "1" departSpeed="11.180000"/>
	<vehicle id="S_132" type="car9" route="route3_1" depart="41" departLane = "1" departSpeed="11.180000"/>
	<vehicle id="L_133" type="car7" route="route4_1" depart="41" departLane = "2" departSpeed="11.180000"/>
	<vehicle id="R_134" type="car5" route="route2_1" depart="42" departLane = "1" departSpeed="11.180000"/>
	<vehicle id="R_135" type="car7" route="route3_2" depart="42" departLane = "0" departSpeed="11.180000"/>
	<vehicle id="L_136" type="car5" route="route1_2" depart="43" departLane = "0" departSpeed="11.180000"/>
	<vehicle id="L_137" type="car5" route="route2_3" depart="43" departLane = "2" departSpeed="11.180000"/>
	<vehicle id="S_138" type="car5" route="route3_1" depart="43" departLane = "2" departSpeed="11.180000"/>
	<vehicle id="L_139" type="car9" route="route4_1" depart="43" departLane = "2" departSpeed="11.180000"/>
	<vehicle id="S_140" type="car8" route="route1_3" depart="44" departLane = "1" departSpeed="11.180000"/>
	<vehicle id="R_141" type="car9" route="route2_1" depart="44" departLane = "0" departSpeed="11.180000"/>
	<vehicle id="S_142" type="car8" route="route3_1" depart="44" departLane = "0" departSpeed="11.180000"/>
	<vehicle id="R_143" type="car7" route="route4_3" depart="44" departLane = "1" departSpeed="11.180000"/>
	<vehicle id="R_144" type="car5" route="route3_2" depart="45" departLane = "2" departSpeed="11.180000"/>
	<vehicle id="S_145" type="car9" route="route1_3" depart="46" departLane = "2" departSpeed="11.180000"/>
	<vehicle id="L_146" type="car7" route="route2_3" depart="46" departLane = "1" departSpeed="11.180000"/>
	<vehicle id="S_147" type="car7" route="route4_2" depart="46" departLane = "0" departSpeed="11.180000"/>
	<vehicle id="R_148" type="car5" route="route2_1" depart="47" departLane = "2" departSpeed="11.180000"/>
	<vehicle id="R_149" type="car8" route="route3_2" depart="47" departLane = "2" departSpeed="11.180000"/>
	<vehicle id="L_150" type="car6" route="route1_2" depart="48" departLane = "0" departSpeed="11.180000"/>
	<vehicle id="L_151" type="car9" route="route2_3" depart="48" departLane = "1" departSpeed="11.180000"/>
	<vehicle id="R_152" type="car6" route="route3_2" depart="48" departLane = "2" departSpeed="11.180000"/>
	<vehicle id="R_153" type="car5" route="route4_3" depart="48" departLane = "2" departSpeed="11.180000"/>
	<vehicle id="L_154" type="car6" route="route1_2" depart="49" departLane = "2" departSpeed="11.180000"/>
	<vehicle id="R_155" type="car9" route="route2_1" depart="49" departLane = "0" departSpeed="11.180000"/>
	<vehicle id="R_156" type="car5" route="route1_4" depart="50" departLane = "0" departSpeed="11.180000"/>
	<vehicle id="R_157" type="car5" route="route3_2" depart="50" departLane = "2" departSpeed="11.180000"/>
	<vehicle id="S_158" type="car6" route="route2_4" depart="51" departLane = "2" departSpeed="11.180000"/>
	<vehicle id="S_159" type="car7" route="route3_1" depart="51" departLane = "0" departSpeed="11.180000"/>
	<vehicle id="S_160" type="car9" route="route1_3" depart="52" departLane = "1" departSpeed="11.180000"/>
	<vehicle id="R_161" type="car8" route="route2_1" depart="52" departLane = "0" departSpeed="11.180000"/>
	<vehicle id="L_162" type="car9" route="route3_4" depart="52" departLane = "0" departSpeed="11.180000"/>
	<vehicle id="L_163" type="car7" route="route1_2" depart="53" departLane = "2" departSpeed="11.180000"/>
	<vehicle id="R_164" type="car7" route="route3_2" depart="53" departLane = "1" departSpeed="11.180000"/>
	<vehicle id="R_165" type="car8" route="route4_3" depart="53" departLane = "0" departSpeed="11.180000"/>
	<vehicle id="R_166" type="car8" route="route3_2" depart="54" departLane = "1" departSpeed="11.180000"/>
	<vehicle id="R_167" type="car6" route="route4_3" depart="54" departLane = "2" departSpeed="11.180000"/>
	<vehicle id="L_168" type="car5" route="route1_2" depart="55" departLane = "2" departSpeed="11.180000"/>
	<vehicle id="L_169" type="car9" route="route2_3" depart="55" departLane = "1" departSpeed="11.180000"/>
	<vehicle id="S_170" type="car6" route="route3_1" depart="55" departLane = "2" departSpeed="11.180000"/>
	<vehicle id="R_171" type="car5" route="route4_3" depart="55" departLane = "1" departSpeed="11.180000"/>
	<vehicle id="R_172" type="car6" route="route3_2" depart="56" departLane = "2" departSpeed="11.180000"/>
	<vehicle id="S_173" type="car8" route="route1_3" depart="57" departLane = "0" departSpeed="11.180000"/>
	<vehicle id="R_174" type="car8" route="route3_2" depart="57" departLane = "0" departSpeed="11.180000"/>
	<vehicle id="L_175" type="car6" route="route4_1" depart="57" departLane = "0" departSpeed="11.180000"/>
	<vehicle id="L_176" type="car5" route="route1_2" depart="58" departLane = "2" departSpeed="11.180000"/>
	<vehicle id="L_177" type="car7" route="route2_3" depart="58" departLane = "1" departSpeed="11.180000"/>
	<vehicle id="L_178" type="car5" route="route4_1" depart="58" departLane = "0" departSpeed="11.180000"/>
	<vehicle id="L_179" type="car5" route="route1_2" depart="59" departLane = "0" departSpeed="11.180000"/>
	<vehicle id="L_180" type="car5" route="route4_1" depart="59" departLane = "1" departSpeed="11.180000"/>
	<vehicle id="S_181" type="car7" route="route1_3" depart="60" departLane = "2" departSpeed="11.180000"/>
	<vehicle id="L_182" type="car7" route="route2_3" depart="60" departLane = "2" departSpeed="11.180000"/>
	<vehicle id="S_183" type="car5" route="route4_2" depart="60" departLane = "0" departSpeed="11.180000"/>
	<vehicle id="R_184" type="car7" route="route3_2" depart="61" departLane = "0" departSpeed="11.180000"/>
	<vehicle id="S_185" type="car8" route="route4_2" depart="61" departLane = "2" departSpeed="11.180000"/>
	<vehicle id="S_186" type="car6" route="route1_3" depart="62" departLane = "0" departSpeed="11.180000"/>
	<vehicle id="S_187" type="car9" route="route2_4" depart="62" departLane = "2" departSpeed="11.180000"/>
	<vehicle id="R_188" type="car7" route="route3_2" depart="62" departLane = "1" departSpeed="11.180000"/>
	<vehicle id="R_189" type="car5" route="route4_3" depart="62" departLane = "1" departSpeed="11.180000"/>
	<vehicle id="R_190" type="car7" route="route2_1" depart="63" departLane = "0" departSpeed="11.180000"/>
	<vehicle id="S_191" type="car7" route="route3_1" depart="63" departLane = "0" departSpeed="11.180000"/>
	<vehicle id="R_192" type="car9" route="route4_3" depart="63" departLane = "0" departSpeed="11.180000"/>
	<vehicle id="L_193" type="car7" route="route1_2" depart="64" departLane = "1" departSpeed="11.180000"/>
	<vehicle id="S_194" type="car6" route="route2_4" depart="64" departLane = "0" departSpeed="11.180000"/>
	<vehicle id="R_195" type="car6" route="route3_2" depart="64" departLane = "1" departSpeed="11.180000"/>
	<vehicle id="S_196" type="car5" route="route1_3" depart="65" departLane = "0" departSpeed="11.180000"/>
	<vehicle id="R_197" type="car7" route="route2_1" depart="65" departLane = "2" departSpeed="11.180000"/>
	<vehicle id="R_198" type="car7" route="route4_3" depart="65" departLane = "0" departSpeed="11.180000"/>
	<vehicle id="L_199" type="car9" route="route3_4" depart="66" departLane = "1" departSpeed="11.180000"/>
	<vehicle id="L_200" type="car5" route="route4_1" depart="66" departLane = "1" departSpeed="11.180000"/>
	<vehicle id="L_201" type="car8" route="route1_2" depart="67" departLane = "0" departSpeed="11.180000"/>
	<vehicle id="R_202" type="car8" route="route2_1" depart="67" departLane = "2" departSpeed="11.180000"/>
	<vehicle id="S_203" type="car7" route="route3_1" depart="67" departLane = "1" departSpeed="11.180000"/>
	<vehicle id="S_204" type="car5" route="route4_2" depart="67" departLane = "0" departSpeed="11.180000"/>
	<vehicle id="L_205" type="car9" route="route1_2" depart="68" departLane = "2" departSpeed="11.180000"/>
	<vehicle id="L_206" type="car6" route="route2_3" depart="68" departLane = "2" departSpeed="11.180000"/>
	<vehicle id="S_207" type="car5" route="route3_1" depart="68" departLane = "2" departSpeed="11.180000"/>
	<vehicle id="L_208" type="car8" route="route4_1" depart="68" departLane = "0" departSpeed="11.180000"/>
	<vehicle id="S_209" type="car6" route="route1_3" depart="69" departLane = "2" departSpeed="11.180000"/>
	<vehicle id="L_210" type="car6" route="route2_3" depart="69" departLane = "0" departSpeed="11.180000"/>
	<vehicle id="S_211" type="car8" route="route3_1" depart="69" departLane = "0" departSpeed="11.180000"/>
	<vehicle id="R_212" type="car6" route="route1_4" depart="70" departLane = "1" departSpeed="11.180000"/>
	<vehicle id="S_213" type="car9" route="route2_4" depart="70" departLane = "2" departSpeed="11.180000"/>
	<vehicle id="R_214" type="car7" route="route3_2" depart="70" departLane = "2" departSpeed="11.180000"/>
	<vehicle id="L_215" type="car9" route="route4_1" depart="70" departLane = "1" departSpeed="11.180000"/>
	<vehicle id="S_216" type="car7" route="route1_3" depart="71" departLane = "0" departSpeed="11.180000"/>
	<vehicle id="S_217" type="car8" route="route2_4" depart="71" departLane = "0" departSpeed="11.180000"/>
	<vehicle id="R_218" type="car5" route="route3_2" depart="71" departLane = "0" departSpeed="11.180000"/>
	<vehicle id="R_219" type="car6" route="route1_4" depart="72" departLane = "0" departSpeed="11.180000"/>
	<vehicle id="S_220" type="car9" route="route2_4" depart="72" departLane = "0" departSpeed="11.180000"/>
	<vehicle id="R_221" type="car5" route="route4_3" depart="72" departLane = "1" departSpeed="11.180000"/>
	<vehicle id="R_222" type="car9" route="route1_4" depart="73" departLane = "0" departSpeed="11.180000"/>
	<vehicle id="R_223" type="car7" route="route2_1" depart="73" departLane = "0" departSpeed="11.180000"/>
	<vehicle id="R_224" type="car8" route="route3_2" depart="73" departLane = "1" departSpeed="11.180000"/>
	<vehicle id="R_225" type="car8" route="route1_4" depart="74" departLane = "2" departSpeed="11.180000"/>
	<vehicle id="S_226" type="car6" route="route3_1" depart="74" departLane = "0" departSpeed="11.180000"/>
	<vehicle id="S_227" type="car5" route="route4_2" depart="74" departLane = "1" departSpeed="11.180000"/>
	<vehicle id="L_228" type="car9" route="route1_2" depart="75" departLane = "2" departSpeed="11.180000"/>
	<vehicle id="S_229" type="car5" route="route4_2" depart="75" departLane = "1" departSpeed="11.180000"/>
	<vehicle id="R_230" type="car6" route="route3_2" depart="76" departLane = "0" departSpeed="11.180000"/>
	<vehicle id="S_231" type="car5" route="route1_3" depart="77" departLane = "2" departSpeed="11.180000"/>
	<vehicle id="L_232" type="car7" route="route3_4" depart="77" departLane = "0" departSpeed="11.180000"/>
	<vehicle id="L_233" type="car8" route="route4_1" depart="77" departLane = "2" departSpeed="11.180000"/>
	<vehicle id="L_234" type="car7" route="route1_2" depart="78" departLane = "2" departSpeed="11.180000"/>
	<vehicle id="L_235" type="car6" route="route2_3" depart="78" departLane = "2" departSpeed="11.180000"/>
	<vehicle id="L_236" type="car5" route="route3_4" depart="78" departLane = "2" departSpeed="11.180000"/>
	<vehicle id="S_237" type="car6" route="route4_2" depart="78" departLane = "0" departSpeed="11.180000"/>
	<vehicle id="L_238" type="car5" route="route1_2" depart="79" departLane = "0" departSpeed="11.180000"/>
	<vehicle id="R_239" type="car7" route="route3_2" depart="79" departLane = "2" departSpeed="11.180000"/>
	<vehicle id="S_240" type="car9" route="route4_2" depart="79" departLane = "0" departSpeed="11.180000"/>
	<vehicle id="S_241" type="car9" route="route1_3" depart="80" departLane = "2" departSpeed="11.180000"/>
	<vehicle id="S_242" type="car6" route="route2_4" depart="80" departLane = "0" departSpeed="11.180000"/>
	<vehicle id="L_243" type="car9" route="route3_4" depart="80" departLane = "1" departSpeed="11.180000"/>
	<vehicle id="L_244" type="car9" route="route4_1" depart="80" departLane = "1" departSpeed="11.180000"/>
	<vehicle id="L_245" type="car9" route="route1_2" depart="81" departLane = "0" departSpeed="11.180000"/>
	<vehicle id="R_246" type="car6" route="route2_1" depart="81" departLane = "1" departSpeed="11.180000"/>
	<vehicle id="L_247" type="car9" route="route4_1" depart="81" departLane = "1" departSpeed="11.180000"/>
	<vehicle id="S_248" type="car9" route="route1_3" depart="82" departLane = "2" departSpeed="11.180000"/>
	<vehicle id="R_249" type="car7" route="route2_1" depart="82" departLane = "0" departSpeed="11.180000"/>
	<vehicle id="S_250" type="car9" route="route4_2" depart="82" departLane = "2" departSpeed="11.180000"/>
	<vehicle id="L_251" type="car6" route="route2_3" depart="83" departLane = "1" departSpeed="11.180000"/>
	<vehicle id="R_252" type="car7" route="route3_2" depart="83" departLane = "1" departSpeed="11.180000"/>
	<vehicle id="S_253" type="car8" route="route1_3" depart="84" departLane = "2" departSpeed="11.180000"/>
	<vehicle id="L_254" type="car7" route="route2_3" depart="84" departLane = "1" departSpeed="11.180000"/>
	<vehicle id="S_255" type="car6" route="route4_2" depart="84" departLane = "0" departSpeed="11.180000"/>
	<vehicle id="S_256" type="car6" route="route2_4" depart="85" departLane = "0" departSpeed="11.180000"/>
	<vehicle id="L_257" type="car5" route="route3_4" depart="85" departLane = "1" departSpeed="11.180000"/>
	<vehicle id="S_258" type="car5" route="route4_2" depart="85" departLane = "0" departSpeed="11.180000"/>
	<vehicle id="S_259" type="car6" route="route2_4" depart="86" departLane = "0" departSpeed="11.180000"/>
	<vehicle id="L_260" type="car8" route="route4_1" depart="86" departLane = "2" departSpeed="11.180000"/>
	<vehicle id="S_261" type="car8" route="route1_3" depart="87" departLane = "2" departSpeed="11.180000"/>
	<vehicle id="L_262" type="car5" route="route3_4" depart="87" departLane = "2" departSpeed="11.180000"/>
	<vehicle id="L_263" type="car5" route="route4_1" depart="87" departLane = "0" departSpeed="11.180000"/>
	<vehicle id="S_264" type="car5" route="route1_3" depart="88" departLane = "1" departSpeed="11.180000"/>
	<vehicle id="S_265" type="car8" route="route2_4" depart="88" departLane = "0" departSpeed="11.180000"/>
	<vehicle id="R_266" type="car9" route="route3_2" depart="88" departLane = "0" departSpeed="11.180000"/>
	<vehicle id="L_267" type="car7" route="route4_1" depart="88" departLane = "1" departSpeed="11.180000"/>
	<vehicle id="S_268" type="car6" route="route1_3" depart="89" departLane = "2" departSpeed="11.180000"/>
	<vehicle id="R_269" type="car5" route="route2_1" depart="89" departLane = "1" departSpeed="11.180000"/>
	<vehicle id="L_270" type="car7" route="route4_1" depart="89" departLane = "1" departSpeed="11.180000"/>
	<vehicle id="S_271" type="car5" route="route2_4" depart="90" departLane = "2" departSpeed="11.180000"/>
	<vehicle id="R_272" type="car8" route="route3_2" depart="90" departLane = "0" departSpeed="11.180000"/>
	<vehicle id="L_273" type="car5" route="route4_1" depart="90" departLane = "0" departSpeed="11.180000"/>