<routes>

	<vType id="car5" accel="100.0" decel="100.0" sigma="0.0" length="5" minGap="1.0" maxSpeed="11.180000" carFollowModel="CACC" color="255,255,255"/>
	<vType id="car6" accel="100.0" decel="100.0" sigma="0.0" length="6" minGap="1.0" maxSpeed="11.180000" carFollowModel="CACC" color="255,255,255"/>
	<vType id="car7" accel="100.0" decel="100.0" sigma="0.0" length="7" minGap="1.0" maxSpeed="11.180000" carFollowModel="CACC" color="255,255,255"/>
	<vType id="car8" accel="100.0" decel="100.0" sigma="0.0" length="8" minGap="1.0" maxSpeed="11.180000" carFollowModel="CACC" color="255,255,255"/>
	<vType id="car9" accel="100.0" decel="100.0" sigma="0.0" length="9" minGap="1.0" maxSpeed="11.180000" carFollowModel="CACC" color="255,255,255"/>

	<route id="route1_2" edges=" 1 -2"/>
	<route id="route1_3" edges=" 1 -3"/>
	<route id="route1_4" edges=" 1 -4"/>
	<route id="route2_1" edges=" 2 -1"/>
	<route id="route2_3" edges=" 2 -3"/>
	<route id="route2_4" edges=" 2 -4"/>
	<route id="route3_1" edges=" 3 -1"/>
	<route id="route3_2" edges=" 3 -2"/>
	<route id="route3_4" edges=" 3 -4"/>
	<route id="route4_1" edges=" 4 -1"/>
	<route id="route4_2" edges=" 4 -2"/>
	<route id="route4_3" edges=" 4 -3"/>

	<vehicle id="R_0" type="car7" route="route1_4" depart="0" departLane = "0" />
	<vehicle id="L_1" type="car5" route="route2_3" depart="0" departLane = "2" />
	<vehicle id="L_2" type="car5" route="route4_1" depart="0" departLane = "2" />
	<vehicle id="S_3" type="car6" route="route1_3" depart="1" departLane = "1" />
	<vehicle id="R_4" type="car5" route="route2_1" depart="1" departLane = "1" />
	<vehicle id="S_5" type="car7" route="route4_2" depart="1" departLane = "0" />
	<vehicle id="R_6" type="car8" route="route2_1" depart="2" departLane = "0" />
	<vehicle id="R_7" type="car7" route="route3_2" depart="2" departLane = "2" />
	<vehicle id="S_8" type="car8" route="route4_2" depart="2" departLane = "2" />
	<vehicle id="S_9" type="car6" route="route1_3" depart="3" departLane = "2" />
	<vehicle id="S_10" type="car8" route="route1_3" depart="4" departLane = "1" />
	<vehicle id="R_11" type="car8" route="route1_4" depart="6" departLane = "0" />
	<vehicle id="S_12" type="car9" route="route2_4" depart="6" departLane = "2" />
	<vehicle id="L_13" type="car6" route="route4_1" depart="6" departLane = "1" />
	<vehicle id="S_14" type="car7" route="route1_3" depart="7" departLane = "1" />
	<vehicle id="R_15" type="car5" route="route2_1" depart="7" departLane = "0" />
	<vehicle id="L_16" type="car6" route="route4_1" depart="7" departLane = "1" />
	<vehicle id="L_17" type="car5" route="route4_1" depart="9" departLane = "1" />
	<vehicle id="S_18" type="car5" route="route4_2" depart="10" departLane = "0" />
	<vehicle id="S_19" type="car6" route="route1_3" depart="11" departLane = "1" />
	<vehicle id="S_20" type="car6" route="route4_2" depart="11" departLane = "0" />
	<vehicle id="R_21" type="car5" route="route1_4" depart="12" departLane = "1" />
	<vehicle id="R_22" type="car7" route="route3_2" depart="12" departLane = "2" />
	<vehicle id="S_23" type="car8" route="route1_3" depart="13" departLane = "1" />
	<vehicle id="R_24" type="car8" route="route2_1" depart="13" departLane = "1" />
	<vehicle id="L_25" type="car5" route="route4_1" depart="14" departLane = "0" />
	<vehicle id="S_26" type="car7" route="route2_4" depart="15" departLane = "1" />
	<vehicle id="L_27" type="car9" route="route3_4" depart="15" departLane = "1" />
	<vehicle id="L_28" type="car9" route="route1_2" depart="16" departLane = "0" />
	<vehicle id="S_29" type="car5" route="route1_3" depart="17" departLane = "0" />
	<vehicle id="L_30" type="car8" route="route3_4" depart="17" departLane = "2" />
	<vehicle id="S_31" type="car5" route="route2_4" depart="18" departLane = "2" />
	<vehicle id="S_32" type="car7" route="route2_4" depart="19" departLane = "1" />
	<vehicle id="S_33" type="car6" route="route3_1" depart="19" departLane = "2" />
	<vehicle id="S_34" type="car6" route="route4_2" depart="19" departLane = "1" />
	<vehicle id="L_35" type="car9" route="route1_2" depart="20" departLane = "1" />
	<vehicle id="S_36" type="car5" route="route2_4" depart="20" departLane = "0" />
	<vehicle id="R_37" type="car5" route="route1_4" depart="21" departLane = "1" />
	<vehicle id="R_38" type="car7" route="route2_1" depart="21" departLane = "1" />
	<vehicle id="S_39" type="car7" route="route2_4" depart="23" departLane = "2" />
	<vehicle id="S_40" type="car7" route="route4_2" depart="23" departLane = "0" />
	<vehicle id="L_41" type="car9" route="route1_2" depart="24" departLane = "1" />
	<vehicle id="L_42" type="car9" route="route2_3" depart="25" departLane = "0" />
	<vehicle id="S_43" type="car7" route="route3_1" depart="25" departLane = "2" />
	<vehicle id="R_44" type="car6" route="route4_3" depart="25" departLane = "2" />
	<vehicle id="L_45" type="car5" route="route3_4" depart="26" departLane = "2" />
	<vehicle id="S_46" type="car6" route="route3_1" depart="27" departLane = "1" />
	<vehicle id="R_47" type="car9" route="route1_4" depart="28" departLane = "0" />
	<vehicle id="S_48" type="car5" route="route2_4" depart="28" departLane = "2" />
	<vehicle id="S_49" type="car7" route="route3_1" depart="28" departLane = "0" />
	<vehicle id="L_50" type="car6" route="route1_2" depart="29" departLane = "1" />
	<vehicle id="R_51" type="car7" route="route4_3" depart="29" departLane = "2" />
	<vehicle id="S_52" type="car5" route="route2_4" depart="30" departLane = "2" />
	<vehicle id="S_53" type="car8" route="route3_1" depart="30" departLane = "1" />
	<vehicle id="S_54" type="car5" route="route1_3" depart="31" departLane = "2" />
	<vehicle id="L_55" type="car7" route="route4_1" depart="31" departLane = "2" />
	<vehicle id="S_56" type="car9" route="route4_2" depart="32" departLane = "1" />
	<vehicle id="R_57" type="car8" route="route1_4" depart="33" departLane = "1" />
	<vehicle id="R_58" type="car5" route="route2_1" depart="33" departLane = "0" />
	<vehicle id="S_59" type="car7" route="route3_1" depart="34" departLane = "0" />
	<vehicle id="R_60" type="car7" route="route3_2" depart="35" departLane = "2" />
	<vehicle id="S_61" type="car7" route="route4_2" depart="35" departLane = "0" />
	<vehicle id="S_62" type="car9" route="route2_4" depart="36" departLane = "0" />
	<vehicle id="R_63" type="car7" route="route3_2" depart="36" departLane = "2" />
	<vehicle id="R_64" type="car8" route="route1_4" depart="37" departLane = "1" />
	<vehicle id="L_65" type="car5" route="route3_4" depart="37" departLane = "1" />
	<vehicle id="R_66" type="car5" route="route4_3" depart="37" departLane = "0" />
	<vehicle id="L_67" type="car5" route="route2_3" depart="38" departLane = "2" />
	<vehicle id="L_68" type="car8" route="route1_2" depart="39" departLane = "2" />
	<vehicle id="S_69" type="car5" route="route4_2" depart="39" departLane = "0" />
	<vehicle id="L_70" type="car6" route="route3_4" depart="40" departLane = "0" />
	<vehicle id="R_71" type="car6" route="route4_3" depart="40" departLane = "0" />
	<vehicle id="S_72" type="car7" route="route4_2" depart="41" departLane = "2" />
	<vehicle id="R_73" type="car8" route="route1_4" depart="42" departLane = "0" />
	<vehicle id="L_74" type="car9" route="route3_4" depart="42" departLane = "1" />
	<vehicle id="S_75" type="car6" route="route1_3" depart="43" departLane = "1" />
	<vehicle id="S_76" type="car5" route="route2_4" depart="43" departLane = "2" />
	<vehicle id="L_77" type="car8" route="route2_3" depart="44" departLane = "0" />
	<vehicle id="L_78" type="car7" route="route4_1" depart="44" departLane = "0" />
	<vehicle id="R_79" type="car5" route="route2_1" depart="45" departLane = "2" />
	<vehicle id="L_80" type="car7" route="route3_4" depart="45" departLane = "0" />
	<vehicle id="R_81" type="car7" route="route2_1" depart="46" departLane = "0" />
	<vehicle id="S_82" type="car6" route="route3_1" depart="46" departLane = "2" />
	<vehicle id="S_83" type="car8" route="route3_1" depart="47" departLane = "1" />
	<vehicle id="R_84" type="car6" route="route4_3" depart="47" departLane = "0" />
	<vehicle id="R_85" type="car9" route="route4_3" depart="48" departLane = "0" />
	<vehicle id="S_86" type="car8" route="route1_3" depart="49" departLane = "0" />
	<vehicle id="L_87" type="car9" route="route3_4" depart="50" departLane = "1" />
	<vehicle id="L_88" type="car9" route="route4_1" depart="50" departLane = "1" />
	<vehicle id="S_89" type="car5" route="route3_1" depart="51" departLane = "2" />
	<vehicle id="R_90" type="car8" route="route4_3" depart="51" departLane = "2" />
	<vehicle id="R_91" type="car8" route="route1_4" depart="52" departLane = "2" />
	<vehicle id="S_92" type="car8" route="route3_1" depart="52" departLane = "1" />
	<vehicle id="R_93" type="car5" route="route4_3" depart="52" departLane = "1" />
	<vehicle id="S_94" type="car8" route="route1_3" depart="53" departLane = "1" />
	<vehicle id="R_95" type="car9" route="route2_1" depart="53" departLane = "2" />
	<vehicle id="L_96" type="car8" route="route3_4" depart="53" departLane = "0" />
	<vehicle id="S_97" type="car9" route="route4_2" depart="54" departLane = "0" />
	<vehicle id="L_98" type="car5" route="route2_3" depart="55" departLane = "2" />
	<vehicle id="S_99" type="car5" route="route3_1" depart="55" departLane = "0" />
	<vehicle id="S_100" type="car9" route="route4_2" depart="56" departLane = "1" />
	<vehicle id="S_101" type="car8" route="route1_3" depart="57" departLane = "2" />
	<vehicle id="L_102" type="car5" route="route1_2" depart="58" departLane = "0" />
	<vehicle id="L_103" type="car9" route="route2_3" depart="58" departLane = "2" />
	<vehicle id="L_104" type="car9" route="route1_2" depart="59" departLane = "2" />
	<vehicle id="S_105" type="car6" route="route2_4" depart="59" departLane = "0" />
	<vehicle id="R_106" type="car5" route="route1_4" depart="60" departLane = "2" />
	<vehicle id="S_107" type="car9" route="route2_4" depart="60" departLane = "0" />
	<vehicle id="R_108" type="car8" route="route4_3" depart="60" departLane = "0" />
	<vehicle id="S_109" type="car8" route="route1_3" depart="61" departLane = "1" />
	<vehicle id="L_110" type="car7" route="route3_4" depart="61" departLane = "0" />
	<vehicle id="S_111" type="car5" route="route1_3" depart="62" departLane = "0" />
	<vehicle id="L_112" type="car7" route="route2_3" depart="62" departLane = "2" />
	<vehicle id="R_113" type="car7" route="route3_2" depart="63" departLane = "1" />
	<vehicle id="S_114" type="car5" route="route1_3" depart="64" departLane = "1" />
	<vehicle id="S_115" type="car9" route="route2_4" depart="65" departLane = "2" />
	<vehicle id="S_116" type="car7" route="route3_1" depart="65" departLane = "0" />
	<vehicle id="S_117" type="car8" route="route4_2" depart="65" departLane = "0" />
	<vehicle id="L_118" type="car5" route="route1_2" depart="66" departLane = "1" />
	<vehicle id="R_119" type="car8" route="route3_2" depart="67" departLane = "0" />
	<vehicle id="R_120" type="car5" route="route2_1" depart="68" departLane = "0" />
	<vehicle id="L_121" type="car7" route="route4_1" depart="68" departLane = "2" />
	<vehicle id="L_122" type="car6" route="route1_2" depart="69" departLane = "1" />
	<vehicle id="S_123" type="car8" route="route3_1" depart="69" departLane = "1" />
	<vehicle id="R_124" type="car9" route="route1_4" depart="71" departLane = "2" />
	<vehicle id="R_125" type="car7" route="route4_3" depart="72" departLane = "2" />
	<vehicle id="L_126" type="car7" route="route2_3" depart="73" departLane = "1" />
	<vehicle id="S_127" type="car6" route="route1_3" depart="74" departLane = "0" />
	<vehicle id="R_128" type="car5" route="route4_3" depart="74" departLane = "1" />
	<vehicle id="S_129" type="car5" route="route1_3" depart="75" departLane = "1" />
	<vehicle id="R_130" type="car7" route="route1_4" depart="77" departLane = "1" />
	<vehicle id="L_131" type="car8" route="route2_3" depart="77" departLane = "2" />
	<vehicle id="S_132" type="car6" route="route3_1" depart="78" departLane = "1" />
	<vehicle id="R_133" type="car5" route="route4_3" depart="79" departLane = "2" />
	<vehicle id="R_134" type="car8" route="route2_1" depart="80" departLane = "2" />
	<vehicle id="L_135" type="car6" route="route3_4" depart="80" departLane = "1" />
	<vehicle id="S_136" type="car7" route="route1_3" depart="81" departLane = "2" />
	<vehicle id="L_137" type="car6" route="route2_3" depart="81" departLane = "0" />
	<vehicle id="S_138" type="car9" route="route1_3" depart="82" departLane = "1" />
	<vehicle id="S_139" type="car9" route="route3_1" depart="82" departLane = "1" />
	<vehicle id="L_140" type="car9" route="route3_4" depart="83" departLane = "0" />
	<vehicle id="L_141" type="car9" route="route4_1" depart="83" departLane = "2" />
	<vehicle id="R_142" type="car7" route="route4_3" depart="85" departLane = "0" />
	<vehicle id="S_143" type="car5" route="route1_3" depart="87" departLane = "1" />
	<vehicle id="S_144" type="car5" route="route3_1" depart="87" departLane = "0" />
	<vehicle id="R_145" type="car7" route="route4_3" depart="87" departLane = "0" />
	<vehicle id="R_146" type="car7" route="route2_1" depart="88" departLane = "1" />
	<vehicle id="L_147" type="car6" route="route4_1" depart="88" departLane = "0" />
	<vehicle id="R_148" type="car7" route="route1_4" depart="89" departLane = "1" />
	<vehicle id="R_149" type="car9" route="route2_1" depart="89" departLane = "1" />
	<vehicle id="L_150" type="car8" route="route3_4" depart="89" departLane = "0" />
	<vehicle id="R_151" type="car9" route="route4_3" depart="89" departLane = "0" />
	<vehicle id="L_152" type="car9" route="route3_4" depart="91" departLane = "0" />
	<vehicle id="L_153" type="car8" route="route1_2" depart="92" departLane = "2" />
	<vehicle id="S_154" type="car8" route="route2_4" depart="92" departLane = "0" />
	<vehicle id="L_155" type="car7" route="route3_4" depart="92" departLane = "1" />
	<vehicle id="S_156" type="car6" route="route4_2" depart="92" departLane = "0" />
	<vehicle id="R_157" type="car6" route="route2_1" depart="93" departLane = "1" />
	<vehicle id="R_158" type="car7" route="route3_2" depart="94" departLane = "0" />
	<vehicle id="S_159" type="car8" route="route4_2" depart="94" departLane = "0" />
	<vehicle id="S_160" type="car6" route="route1_3" depart="95" departLane = "1" />
	<vehicle id="R_161" type="car7" route="route3_2" depart="96" departLane = "1" />
	<vehicle id="S_162" type="car9" route="route4_2" depart="96" departLane = "2" />
	<vehicle id="L_163" type="car7" route="route1_2" depart="97" departLane = "1" />
	<vehicle id="S_164" type="car8" route="route2_4" depart="97" departLane = "0" />
	<vehicle id="R_165" type="car9" route="route4_3" depart="98" departLane = "1" />
	<vehicle id="S_166" type="car5" route="route3_1" depart="99" departLane = "1" />
	<vehicle id="R_167" type="car8" route="route2_1" depart="100" departLane = "0" />
	<vehicle id="R_168" type="car8" route="route3_2" depart="100" departLane = "2" />
	<vehicle id="S_169" type="car6" route="route1_3" depart="101" departLane = "0" />
	<vehicle id="R_170" type="car5" route="route3_2" depart="101" departLane = "1" />
	<vehicle id="L_171" type="car6" route="route4_1" depart="102" departLane = "0" />
	<vehicle id="R_172" type="car6" route="route2_1" depart="103" departLane = "0" />
	<vehicle id="R_173" type="car9" route="route3_2" depart="103" departLane = "0" />
	<vehicle id="R_174" type="car5" route="route1_4" depart="104" departLane = "1" />
	<vehicle id="L_175" type="car5" route="route1_2" depart="105" departLane = "2" />
	<vehicle id="L_176" type="car8" route="route3_4" depart="106" departLane = "1" />
	<vehicle id="L_177" type="car8" route="route1_2" depart="107" departLane = "0" />
	<vehicle id="S_178" type="car6" route="route3_1" depart="108" departLane = "1" />
	<vehicle id="S_179" type="car5" route="route1_3" depart="109" departLane = "0" />
	<vehicle id="S_180" type="car8" route="route2_4" depart="109" departLane = "2" />
	<vehicle id="L_181" type="car6" route="route4_1" depart="109" departLane = "1" />
	<vehicle id="L_182" type="car7" route="route4_1" depart="110" departLane = "0" />
	<vehicle id="R_183" type="car8" route="route1_4" depart="111" departLane = "2" />
	<vehicle id="S_184" type="car5" route="route3_1" depart="111" departLane = "2" />
	<vehicle id="R_185" type="car7" route="route2_1" depart="112" departLane = "1" />
	<vehicle id="L_186" type="car8" route="route4_1" depart="112" departLane = "2" />
	<vehicle id="S_187" type="car7" route="route1_3" depart="113" departLane = "1" />
	<vehicle id="R_188" type="car7" route="route4_3" depart="113" departLane = "2" />
	<vehicle id="S_189" type="car6" route="route1_3" depart="114" departLane = "2" />
	<vehicle id="L_190" type="car6" route="route2_3" depart="114" departLane = "2" />
	<vehicle id="R_191" type="car8" route="route4_3" depart="114" departLane = "0" />
	<vehicle id="S_192" type="car6" route="route1_3" depart="115" departLane = "1" />
	<vehicle id="R_193" type="car8" route="route2_1" depart="115" departLane = "0" />
	<vehicle id="L_194" type="car5" route="route3_4" depart="115" departLane = "1" />
	<vehicle id="S_195" type="car7" route="route4_2" depart="116" departLane = "0" />
	<vehicle id="L_196" type="car8" route="route3_4" depart="117" departLane = "2" />
	<vehicle id="R_197" type="car9" route="route4_3" depart="117" departLane = "2" />
	<vehicle id="S_198" type="car5" route="route1_3" depart="118" departLane = "1" />
	<vehicle id="L_199" type="car8" route="route1_2" depart="119" departLane = "2" />
	<vehicle id="S_200" type="car5" route="route2_4" depart="119" departLane = "2" />
	<vehicle id="L_201" type="car6" route="route3_4" depart="119" departLane = "0" />
	<vehicle id="S_202" type="car5" route="route3_1" depart="120" departLane = "1" />
	<vehicle id="R_203" type="car7" route="route4_3" depart="120" departLane = "1" />
	<vehicle id="R_204" type="car9" route="route1_4" depart="121" departLane = "1" />
	<vehicle id="S_205" type="car6" route="route3_1" depart="121" departLane = "0" />
	<vehicle id="L_206" type="car6" route="route2_3" depart="122" departLane = "0" />
	<vehicle id="R_207" type="car7" route="route4_3" depart="122" departLane = "2" />
	<vehicle id="S_208" type="car7" route="route2_4" depart="123" departLane = "0" />
	<vehicle id="L_209" type="car9" route="route4_1" depart="123" departLane = "1" />
	<vehicle id="R_210" type="car5" route="route1_4" depart="125" departLane = "0" />
	<vehicle id="S_211" type="car7" route="route3_1" depart="125" departLane = "1" />
	<vehicle id="S_212" type="car6" route="route1_3" depart="126" departLane = "2" />
	<vehicle id="R_213" type="car5" route="route2_1" depart="126" departLane = "1" />
	<vehicle id="S_214" type="car9" route="route1_3" depart="127" departLane = "2" />
	<vehicle id="S_215" type="car6" route="route3_1" depart="127" departLane = "2" />
	<vehicle id="L_216" type="car5" route="route1_2" depart="128" departLane = "0" />
	<vehicle id="L_217" type="car5" route="route1_2" depart="129" departLane = "1" />
	<vehicle id="R_218" type="car7" route="route3_2" depart="129" departLane = "2" />
	<vehicle id="L_219" type="car8" route="route1_2" depart="130" departLane = "2" />
	<vehicle id="S_220" type="car8" route="route3_1" depart="130" departLane = "0" />
	<vehicle id="R_221" type="car7" route="route1_4" depart="131" departLane = "1" />
	<vehicle id="L_222" type="car9" route="route3_4" depart="131" departLane = "0" />
	<vehicle id="R_223" type="car6" route="route2_1" depart="132" departLane = "1" />
	<vehicle id="R_224" type="car5" route="route4_3" depart="132" departLane = "1" />
	<vehicle id="L_225" type="car8" route="route1_2" depart="133" departLane = "1" />
	<vehicle id="S_226" type="car6" route="route3_1" depart="133" departLane = "1" />
	<vehicle id="S_227" type="car6" route="route4_2" depart="133" departLane = "0" />
	<vehicle id="L_228" type="car5" route="route2_3" depart="134" departLane = "0" />
	<vehicle id="L_229" type="car9" route="route4_1" depart="134" departLane = "2" />
	<vehicle id="L_230" type="car7" route="route1_2" depart="135" departLane = "2" />
	<vehicle id="L_231" type="car6" route="route2_3" depart="136" departLane = "2" />
	<vehicle id="L_232" type="car7" route="route3_4" depart="136" departLane = "1" />
	<vehicle id="R_233" type="car9" route="route2_1" depart="137" departLane = "2" />
	<vehicle id="R_234" type="car8" route="route2_1" depart="138" departLane = "1" />
	<vehicle id="L_235" type="car8" route="route4_1" depart="138" departLane = "2" />
	<vehicle id="L_236" type="car9" route="route4_1" depart="139" departLane = "0" />
	<vehicle id="R_237" type="car8" route="route1_4" depart="140" departLane = "0" />
	<vehicle id="S_238" type="car5" route="route2_4" depart="140" departLane = "1" />
	<vehicle id="S_239" type="car6" route="route3_1" depart="140" departLane = "0" />
	<vehicle id="L_240" type="car6" route="route4_1" depart="140" departLane = "0" />
	<vehicle id="S_241" type="car5" route="route1_3" depart="141" departLane = "0" />
	<vehicle id="R_242" type="car7" route="route2_1" depart="142" departLane = "1" />
	<vehicle id="S_243" type="car9" route="route4_2" depart="142" departLane = "2" />
	<vehicle id="L_244" type="car7" route="route1_2" depart="143" departLane = "1" />
	<vehicle id="S_245" type="car5" route="route3_1" depart="143" departLane = "0" />
	<vehicle id="R_246" type="car5" route="route1_4" depart="144" departLane = "1" />
	<vehicle id="S_247" type="car6" route="route2_4" depart="144" departLane = "2" />
	<vehicle id="R_248" type="car6" route="route3_2" depart="144" departLane = "2" />
	<vehicle id="R_249" type="car8" route="route1_4" depart="145" departLane = "0" />
	<vehicle id="L_250" type="car8" route="route2_3" depart="145" departLane = "2" />
	<vehicle id="S_251" type="car9" route="route1_3" depart="146" departLane = "2" />
	<vehicle id="R_252" type="car5" route="route3_2" depart="146" departLane = "1" />
	<vehicle id="S_253" type="car9" route="route1_3" depart="147" departLane = "0" />
	<vehicle id="L_254" type="car8" route="route2_3" depart="147" departLane = "1" />
	<vehicle id="R_255" type="car8" route="route4_3" depart="147" departLane = "1" />
	<vehicle id="S_256" type="car9" route="route3_1" depart="148" departLane = "2" />
	<vehicle id="R_257" type="car7" route="route1_4" depart="150" departLane = "2" />
	<vehicle id="L_258" type="car6" route="route3_4" depart="150" departLane = "1" />
	<vehicle id="L_259" type="car5" route="route3_4" depart="151" departLane = "1" />
	<vehicle id="S_260" type="car9" route="route4_2" depart="152" departLane = "2" />
	<vehicle id="L_261" type="car6" route="route1_2" depart="154" departLane = "0" />
	<vehicle id="R_262" type="car9" route="route3_2" depart="154" departLane = "0" />
	<vehicle id="L_263" type="car8" route="route4_1" depart="154" departLane = "1" />
	<vehicle id="S_264" type="car9" route="route1_3" depart="155" departLane = "1" />
	<vehicle id="L_265" type="car7" route="route3_4" depart="155" departLane = "2" />
	<vehicle id="L_266" type="car5" route="route2_3" depart="156" departLane = "2" />
	<vehicle id="L_267" type="car7" route="route4_1" depart="156" departLane = "2" />
	<vehicle id="L_268" type="car5" route="route3_4" depart="157" departLane = "2" />
	<vehicle id="S_269" type="car8" route="route3_1" depart="158" departLane = "0" />
	<vehicle id="L_270" type="car9" route="route4_1" depart="158" departLane = "0" />
	<vehicle id="S_271" type="car6" route="route2_4" depart="159" departLane = "1" />
	<vehicle id="L_272" type="car6" route="route1_2" depart="160" departLane = "2" />
	<vehicle id="S_273" type="car6" route="route3_1" depart="160" departLane = "0" />
	<vehicle id="S_274" type="car5" route="route3_1" depart="161" departLane = "0" />
	<vehicle id="L_275" type="car9" route="route4_1" depart="161" departLane = "0" />
	<vehicle id="S_276" type="car5" route="route3_1" depart="162" departLane = "1" />
	<vehicle id="L_277" type="car6" route="route2_3" depart="163" departLane = "0" />
	<vehicle id="S_278" type="car9" route="route4_2" depart="163" departLane = "2" />
	<vehicle id="L_279" type="car6" route="route2_3" depart="164" departLane = "2" />
	<vehicle id="R_280" type="car9" route="route4_3" depart="164" departLane = "2" />
	<vehicle id="L_281" type="car5" route="route4_1" depart="165" departLane = "1" />
	<vehicle id="L_282" type="car9" route="route2_3" depart="166" departLane = "0" />
	<vehicle id="R_283" type="car7" route="route3_2" depart="167" departLane = "0" />
	<vehicle id="L_284" type="car7" route="route1_2" depart="169" departLane = "1" />
	<vehicle id="R_285" type="car9" route="route2_1" depart="169" departLane = "2" />
	<vehicle id="R_286" type="car6" route="route3_2" depart="169" departLane = "2" />
	<vehicle id="R_287" type="car8" route="route4_3" depart="170" departLane = "2" />
	<vehicle id="R_288" type="car8" route="route3_2" depart="171" departLane = "1" />
	<vehicle id="R_289" type="car5" route="route2_1" depart="172" departLane = "0" />
	<vehicle id="S_290" type="car8" route="route3_1" depart="172" departLane = "1" />
	<vehicle id="R_291" type="car6" route="route2_1" depart="173" departLane = "2" />
	<vehicle id="S_292" type="car7" route="route1_3" depart="176" departLane = "1" />
	<vehicle id="R_293" type="car5" route="route3_2" depart="176" departLane = "1" />
	<vehicle id="L_294" type="car8" route="route4_1" depart="176" departLane = "2" />
	<vehicle id="R_295" type="car8" route="route4_3" depart="177" departLane = "1" />
	<vehicle id="R_296" type="car6" route="route2_1" depart="178" departLane = "0" />
	<vehicle id="R_297" type="car5" route="route3_2" depart="178" departLane = "1" />
	<vehicle id="L_298" type="car8" route="route1_2" depart="181" departLane = "2" />
	<vehicle id="S_299" type="car5" route="route1_3" depart="182" departLane = "2" />
	<vehicle id="L_300" type="car5" route="route3_4" depart="182" departLane = "1" />
	<vehicle id="R_301" type="car7" route="route2_1" depart="183" departLane = "1" />
	<vehicle id="L_302" type="car7" route="route3_4" depart="183" departLane = "0" />
	<vehicle id="L_303" type="car5" route="route3_4" depart="184" departLane = "0" />
	<vehicle id="L_304" type="car8" route="route4_1" depart="184" departLane = "0" />
	<vehicle id="R_305" type="car9" route="route4_3" depart="185" departLane = "2" />
	<vehicle id="S_306" type="car6" route="route4_2" depart="186" departLane = "0" />
	<vehicle id="S_307" type="car9" route="route1_3" depart="188" departLane = "1" />
	<vehicle id="S_308" type="car6" route="route2_4" depart="188" departLane = "0" />
	<vehicle id="L_309" type="car7" route="route4_1" depart="188" departLane = "1" />
	<vehicle id="S_310" type="car9" route="route1_3" depart="189" departLane = "1" />
	<vehicle id="S_311" type="car6" route="route2_4" depart="189" departLane = "1" />
	<vehicle id="L_312" type="car8" route="route4_1" depart="189" departLane = "1" />
	<vehicle id="S_313" type="car9" route="route1_3" depart="190" departLane = "2" />
	<vehicle id="S_314" type="car6" route="route2_4" depart="190" departLane = "2" />
	<vehicle id="R_315" type="car8" route="route4_3" depart="190" departLane = "2" />
	<vehicle id="S_316" type="car8" route="route3_1" depart="192" departLane = "1" />
	<vehicle id="R_317" type="car9" route="route2_1" depart="193" departLane = "1" />
	<vehicle id="S_318" type="car7" route="route4_2" depart="194" departLane = "2" />
	<vehicle id="S_319" type="car5" route="route1_3" depart="195" departLane = "0" />
	<vehicle id="L_320" type="car6" route="route3_4" depart="195" departLane = "2" />
	<vehicle id="S_321" type="car9" route="route4_2" depart="195" departLane = "2" />
	<vehicle id="R_322" type="car9" route="route1_4" depart="196" departLane = "1" />
	<vehicle id="L_323" type="car6" route="route2_3" depart="197" departLane = "2" />
	<vehicle id="L_324" type="car5" route="route1_2" depart="198" departLane = "1" />
	<vehicle id="S_325" type="car8" route="route1_3" depart="199" departLane = "0" />
	<vehicle id="S_326" type="car5" route="route4_2" depart="199" departLane = "0" />
	<vehicle id="R_327" type="car9" route="route2_1" depart="200" departLane = "1" />
	<vehicle id="L_328" type="car7" route="route4_1" depart="200" departLane = "1" />
	<vehicle id="R_329" type="car5" route="route1_4" depart="201" departLane = "2" />
	<vehicle id="R_330" type="car8" route="route2_1" depart="201" departLane = "2" />
	<vehicle id="R_331" type="car8" route="route1_4" depart="202" departLane = "0" />
	<vehicle id="S_332" type="car9" route="route2_4" depart="202" departLane = "1" />
	<vehicle id="R_333" type="car9" route="route3_2" depart="202" departLane = "1" />
	<vehicle id="S_334" type="car5" route="route4_2" depart="202" departLane = "0" />
	<vehicle id="S_335" type="car7" route="route4_2" depart="203" departLane = "0" />
	<vehicle id="S_336" type="car7" route="route2_4" depart="204" departLane = "1" />
	<vehicle id="R_337" type="car6" route="route4_3" depart="204" departLane = "1" />
	<vehicle id="S_338" type="car7" route="route4_2" depart="205" departLane = "0" />
	<vehicle id="L_339" type="car7" route="route2_3" depart="206" departLane = "1" />
	<vehicle id="R_340" type="car5" route="route3_2" depart="206" departLane = "1" />
	<vehicle id="R_341" type="car6" route="route2_1" depart="207" departLane = "1" />
	<vehicle id="S_342" type="car7" route="route4_2" depart="207" departLane = "2" />
	<vehicle id="S_343" type="car8" route="route1_3" depart="208" departLane = "1" />
	<vehicle id="L_344" type="car6" route="route2_3" depart="208" departLane = "0" />
	<vehicle id="L_345" type="car7" route="route3_4" depart="208" departLane = "0" />
	<vehicle id="S_346" type="car5" route="route2_4" depart="210" departLane = "2" />
	<vehicle id="L_347" type="car5" route="route4_1" depart="210" departLane = "1" />
	<vehicle id="R_348" type="car9" route="route1_4" depart="211" departLane = "0" />
	<vehicle id="R_349" type="car9" route="route3_2" depart="211" departLane = "2" />