<routes>

	<vType id="car5" accel="200.0" decel="200.0" sigma="0.0" length="5" minGap="3.000000" maxSpeed="11.180000" tau="0.100000" carFollowModel="CACC" color="255,255,255"/>
	<vType id="car6" accel="200.0" decel="200.0" sigma="0.0" length="6" minGap="3.000000" maxSpeed="11.180000" tau="0.100000" carFollowModel="CACC" color="255,255,255"/>
	<vType id="car7" accel="200.0" decel="200.0" sigma="0.0" length="7" minGap="3.000000" maxSpeed="11.180000" tau="0.100000" carFollowModel="CACC" color="255,255,255"/>
	<vType id="car8" accel="200.0" decel="200.0" sigma="0.0" length="8" minGap="3.000000" maxSpeed="11.180000" tau="0.100000" carFollowModel="CACC" color="255,255,255"/>
	<vType id="car9" accel="200.0" decel="200.0" sigma="0.0" length="9" minGap="3.000000" maxSpeed="11.180000" tau="0.100000" carFollowModel="CACC" color="255,255,255"/>

	<route id="route0_1_2" edges=" 001_001_1"/>
	<route id="route0_1_3" edges=" 001_001_1"/>
	<route id="route0_1_4" edges=" 001_001_1"/>
	<route id="route0_2_1" edges=" 001_001_2"/>
	<route id="route0_2_3" edges=" 001_001_2"/>
	<route id="route0_2_4" edges=" 001_001_2"/>
	<route id="route0_3_1" edges=" 001_001_3"/>
	<route id="route0_3_2" edges=" 001_001_3"/>
	<route id="route0_3_4" edges=" 001_001_3"/>
	<route id="route0_4_1" edges=" 001_001_4"/>
	<route id="route0_4_2" edges=" 001_001_4"/>
	<route id="route0_4_3" edges=" 001_001_4"/>
	<route id="route1_1_2" edges=" 002_001_1"/>
	<route id="route1_1_3" edges=" 002_001_1"/>
	<route id="route1_1_4" edges=" 002_001_1"/>
	<route id="route1_2_1" edges=" 002_001_2"/>
	<route id="route1_2_3" edges=" 002_001_2"/>
	<route id="route1_2_4" edges=" 002_001_2"/>
	<route id="route1_3_1" edges=" 002_001_3"/>
	<route id="route1_3_2" edges=" 002_001_3"/>
	<route id="route1_3_4" edges=" 002_001_3"/>
	<route id="route1_4_1" edges=" 002_001_4"/>
	<route id="route1_4_2" edges=" 002_001_4"/>
	<route id="route1_4_3" edges=" 002_001_4"/>

	<vehicle id="SX_0" type="car7" route="route0_4_2" depart="0" departLane = "1" departSpeed="11.180000"/>
	<vehicle id="LX_1" type="car6" route="route1_2_3" depart="0" departLane = "2" departSpeed="11.180000"/>
	<vehicle id="RX_2" type="car8" route="route1_3_2" depart="0" departLane = "0" departSpeed="11.180000"/>
	<vehicle id="SX_3" type="car6" route="route1_4_2" depart="0" departLane = "1" departSpeed="11.180000"/>
	<vehicle id="RX_4" type="car8" route="route0_1_4" depart="1" departLane = "0" departSpeed="11.180000"/>
	<vehicle id="LX_5" type="car8" route="route1_2_3" depart="1" departLane = "2" departSpeed="11.180000"/>
	<vehicle id="LX_6" type="car8" route="route1_3_4" depart="1" departLane = "2" departSpeed="11.180000"/>
	<vehicle id="SX_7" type="car8" route="route1_4_2" depart="1" departLane = "1" departSpeed="11.180000"/>
	<vehicle id="LR_8" type="car9" route="route0_2_3" depart="2" departLane = "2" departSpeed="11.180000"/>
	<vehicle id="LX_9" type="car6" route="route0_4_1" depart="2" departLane = "2" departSpeed="11.180000"/>
	<vehicle id="RX_10" type="car5" route="route1_3_2" depart="2" departLane = "0" departSpeed="11.180000"/>
	<vehicle id="SX_11" type="car7" route="route1_4_2" depart="2" departLane = "1" departSpeed="11.180000"/>
	<vehicle id="LX_12" type="car7" route="route0_1_2" depart="3" departLane = "2" departSpeed="11.180000"/>
	<vehicle id="RL_13" type="car9" route="route1_2_1" depart="3" departLane = "0" departSpeed="11.180000"/>
	<vehicle id="RX_14" type="car6" route="route1_4_3" depart="3" departLane = "0" departSpeed="11.180000"/>
	<vehicle id="RX_15" type="car6" route="route0_2_1" depart="4" departLane = "0" departSpeed="11.180000"/>
	<vehicle id="RS_16" type="car9" route="route0_4_3" depart="4" departLane = "0" departSpeed="11.180000"/>
	<vehicle id="LX_17" type="car5" route="route1_2_3" depart="4" departLane = "2" departSpeed="11.180000"/>
	<vehicle id="RX_18" type="car8" route="route1_3_2" depart="4" departLane = "0" departSpeed="11.180000"/>
	<vehicle id="SX_19" type="car9" route="route1_4_2" depart="4" departLane = "1" departSpeed="11.180000"/>
	<vehicle id="RX_20" type="car7" route="route0_1_4" depart="5" departLane = "0" departSpeed="11.180000"/>
	<vehicle id="SX_21" type="car8" route="route1_2_4" depart="5" departLane = "1" departSpeed="11.180000"/>
	<vehicle id="LR_22" type="car7" route="route1_4_1" depart="5" departLane = "2" departSpeed="11.180000"/>
	<vehicle id="SX_23" type="car7" route="route0_2_4" depart="6" departLane = "1" departSpeed="11.180000"/>
	<vehicle id="RS_24" type="car6" route="route0_4_3" depart="6" departLane = "0" departSpeed="11.180000"/>
	<vehicle id="RX_25" type="car7" route="route1_3_2" depart="6" departLane = "0" departSpeed="11.180000"/>
	<vehicle id="RX_26" type="car8" route="route0_1_4" depart="7" departLane = "0" departSpeed="11.180000"/>
	<vehicle id="LX_27" type="car5" route="route1_2_3" depart="7" departLane = "2" departSpeed="11.180000"/>
	<vehicle id="LX_28" type="car7" route="route0_1_2" depart="8" departLane = "2" departSpeed="11.180000"/>
	<vehicle id="LX_29" type="car7" route="route0_4_1" depart="8" departLane = "2" departSpeed="11.180000"/>
	<vehicle id="LX_30" type="car9" route="route1_2_3" depart="8" departLane = "2" departSpeed="11.180000"/>
	<vehicle id="RX_31" type="car8" route="route1_4_3" depart="8" departLane = "0" departSpeed="11.180000"/>
	<vehicle id="SX_32" type="car8" route="route0_2_4" depart="9" departLane = "1" departSpeed="11.180000"/>
	<vehicle id="RL_33" type="car5" route="route0_4_3" depart="9" departLane = "0" departSpeed="11.180000"/>
	<vehicle id="SX_34" type="car6" route="route1_4_2" depart="9" departLane = "1" departSpeed="11.180000"/>
	<vehicle id="LX_35" type="car7" route="route0_1_2" depart="10" departLane = "2" departSpeed="11.180000"/>
	<vehicle id="RX_36" type="car6" route="route0_2_1" depart="10" departLane = "0" departSpeed="11.180000"/>
	<vehicle id="SX_37" type="car6" route="route0_4_2" depart="10" departLane = "1" departSpeed="11.180000"/>
	<vehicle id="LX_38" type="car6" route="route1_2_3" depart="10" departLane = "2" departSpeed="11.180000"/>
	<vehicle id="RX_39" type="car5" route="route1_3_2" depart="10" departLane = "0" departSpeed="11.180000"/>
	<vehicle id="RX_40" type="car7" route="route0_2_1" depart="11" departLane = "0" departSpeed="11.180000"/>
	<vehicle id="LX_41" type="car6" route="route0_4_1" depart="11" departLane = "2" departSpeed="11.180000"/>
	<vehicle id="LX_42" type="car7" route="route1_2_3" depart="11" departLane = "2" departSpeed="11.180000"/>
	<vehicle id="SX_43" type="car9" route="route1_4_2" depart="11" departLane = "1" departSpeed="11.180000"/>
	<vehicle id="SL_44" type="car5" route="route0_1_3" depart="12" departLane = "1" departSpeed="11.180000"/>
	<vehicle id="RX_45" type="car6" route="route0_2_1" depart="12" departLane = "0" departSpeed="11.180000"/>
	<vehicle id="LX_46" type="car6" route="route1_3_4" depart="12" departLane = "2" departSpeed="11.180000"/>
	<vehicle id="SX_47" type="car7" route="route1_4_2" depart="12" departLane = "1" departSpeed="11.180000"/>
	<vehicle id="SX_48" type="car5" route="route0_2_4" depart="13" departLane = "1" departSpeed="11.180000"/>
	<vehicle id="SX_49" type="car9" route="route1_4_2" depart="13" departLane = "1" departSpeed="11.180000"/>
	<vehicle id="LX_50" type="car8" route="route0_1_2" depart="14" departLane = "2" departSpeed="11.180000"/>
	<vehicle id="LL_51" type="car8" route="route0_2_3" depart="14" departLane = "2" departSpeed="11.180000"/>
	<vehicle id="LX_52" type="car8" route="route1_3_4" depart="14" departLane = "2" departSpeed="11.180000"/>
	<vehicle id="LS_53" type="car7" route="route1_4_1" depart="14" departLane = "2" departSpeed="11.180000"/>
	<vehicle id="SS_54" type="car6" route="route0_1_3" depart="15" departLane = "1" departSpeed="11.180000"/>
	<vehicle id="LS_55" type="car5" route="route0_2_3" depart="15" departLane = "2" departSpeed="11.180000"/>
	<vehicle id="RR_56" type="car9" route="route0_4_3" depart="15" departLane = "0" departSpeed="11.180000"/>
	<vehicle id="LL_57" type="car8" route="route1_4_1" depart="15" departLane = "2" departSpeed="11.180000"/>
	<vehicle id="SX_58" type="car9" route="route0_2_4" depart="16" departLane = "1" departSpeed="11.180000"/>
	<vehicle id="RR_59" type="car8" route="route0_4_3" depart="16" departLane = "0" departSpeed="11.180000"/>
	<vehicle id="SS_60" type="car9" route="route1_3_1" depart="16" departLane = "1" departSpeed="11.180000"/>
	<vehicle id="RX_61" type="car7" route="route0_1_4" depart="17" departLane = "0" departSpeed="11.180000"/>
	<vehicle id="SX_62" type="car7" route="route0_2_4" depart="17" departLane = "1" departSpeed="11.180000"/>
	<vehicle id="RL_63" type="car9" route="route1_2_1" depart="17" departLane = "0" departSpeed="11.180000"/>
	<vehicle id="SR_64" type="car6" route="route1_3_1" depart="17" departLane = "1" departSpeed="11.180000"/>
	<vehicle id="RX_65" type="car8" route="route1_4_3" depart="17" departLane = "0" departSpeed="11.180000"/>
	<vehicle id="RX_66" type="car7" route="route0_1_4" depart="18" departLane = "0" departSpeed="11.180000"/>
	<vehicle id="LX_67" type="car8" route="route0_4_1" depart="18" departLane = "2" departSpeed="11.180000"/>
	<vehicle id="RX_68" type="car7" route="route1_3_2" depart="18" departLane = "0" departSpeed="11.180000"/>
	<vehicle id="LX_69" type="car5" route="route0_1_2" depart="19" departLane = "2" departSpeed="11.180000"/>
	<vehicle id="SX_70" type="car9" route="route0_2_4" depart="19" departLane = "1" departSpeed="11.180000"/>
	<vehicle id="LS_71" type="car8" route="route1_4_1" depart="19" departLane = "2" departSpeed="11.180000"/>
	<vehicle id="RL_72" type="car6" route="route1_2_1" depart="20" departLane = "0" departSpeed="11.180000"/>
	<vehicle id="SX_73" type="car7" route="route0_4_2" depart="21" departLane = "1" departSpeed="11.180000"/>
	<vehicle id="SX_74" type="car9" route="route1_4_2" depart="21" departLane = "1" departSpeed="11.180000"/>
	<vehicle id="RX_75" type="car8" route="route0_1_4" depart="22" departLane = "0" departSpeed="11.180000"/>
	<vehicle id="SX_76" type="car9" route="route0_2_4" depart="22" departLane = "1" departSpeed="11.180000"/>
	<vehicle id="SX_77" type="car5" route="route1_2_4" depart="22" departLane = "1" departSpeed="11.180000"/>
	<vehicle id="SX_78" type="car7" route="route1_4_2" depart="22" departLane = "1" departSpeed="11.180000"/>
	<vehicle id="SL_79" type="car6" route="route0_1_3" depart="23" departLane = "1" departSpeed="11.180000"/>
	<vehicle id="LR_80" type="car5" route="route0_2_3" depart="23" departLane = "2" departSpeed="11.180000"/>
	<vehicle id="LR_81" type="car7" route="route1_4_1" depart="23" departLane = "2" departSpeed="11.180000"/>
	<vehicle id="RX_82" type="car5" route="route0_2_1" depart="24" departLane = "0" departSpeed="11.180000"/>
	<vehicle id="SX_83" type="car9" route="route1_2_4" depart="24" departLane = "1" departSpeed="11.180000"/>
	<vehicle id="RX_84" type="car8" route="route1_3_2" depart="24" departLane = "0" departSpeed="11.180000"/>
	<vehicle id="LR_85" type="car7" route="route1_4_1" depart="24" departLane = "2" departSpeed="11.180000"/>
	<vehicle id="RX_86" type="car8" route="route0_1_4" depart="25" departLane = "0" departSpeed="11.180000"/>
	<vehicle id="SX_87" type="car5" route="route1_2_4" depart="25" departLane = "1" departSpeed="11.180000"/>
	<vehicle id="SS_88" type="car8" route="route1_3_1" depart="25" departLane = "1" departSpeed="11.180000"/>
	<vehicle id="SX_89" type="car5" route="route1_4_2" depart="25" departLane = "1" departSpeed="11.180000"/>
	<vehicle id="RX_90" type="car7" route="route0_1_4" depart="26" departLane = "0" departSpeed="11.180000"/>
	<vehicle id="LL_91" type="car7" route="route0_2_3" depart="26" departLane = "2" departSpeed="11.180000"/>
	<vehicle id="RS_92" type="car6" route="route0_4_3" depart="26" departLane = "0" departSpeed="11.180000"/>
	<vehicle id="RR_93" type="car9" route="route1_2_1" depart="26" departLane = "0" departSpeed="11.180000"/>
	<vehicle id="SL_94" type="car8" route="route1_3_1" depart="26" departLane = "1" departSpeed="11.180000"/>
	<vehicle id="LX_95" type="car7" route="route0_1_2" depart="27" departLane = "2" departSpeed="11.180000"/>
	<vehicle id="SX_96" type="car8" route="route0_4_2" depart="27" departLane = "1" departSpeed="11.180000"/>
	<vehicle id="SX_97" type="car6" route="route1_2_4" depart="27" departLane = "1" departSpeed="11.180000"/>
	<vehicle id="RX_98" type="car8" route="route1_4_3" depart="27" departLane = "0" departSpeed="11.180000"/>
	<vehicle id="LX_99" type="car5" route="route0_1_2" depart="28" departLane = "2" departSpeed="11.180000"/>
	<vehicle id="SX_100" type="car5" route="route0_2_4" depart="28" departLane = "1" departSpeed="11.180000"/>
	<vehicle id="RR_101" type="car8" route="route1_2_1" depart="28" departLane = "0" departSpeed="11.180000"/>
	<vehicle id="LX_102" type="car6" route="route1_3_4" depart="28" departLane = "2" departSpeed="11.180000"/>
	<vehicle id="LS_103" type="car6" route="route1_4_1" depart="28" departLane = "2" departSpeed="11.180000"/>
	<vehicle id="SR_104" type="car7" route="route0_1_3" depart="29" departLane = "1" departSpeed="11.180000"/>
	<vehicle id="RR_105" type="car7" route="route1_2_1" depart="29" departLane = "0" departSpeed="11.180000"/>
	<vehicle id="LX_106" type="car5" route="route1_3_4" depart="29" departLane = "2" departSpeed="11.180000"/>
	<vehicle id="SS_107" type="car9" route="route1_3_1" depart="30" departLane = "1" departSpeed="11.180000"/>
	<vehicle id="LX_108" type="car5" route="route0_1_2" depart="31" departLane = "2" departSpeed="11.180000"/>
	<vehicle id="SX_109" type="car5" route="route0_2_4" depart="31" departLane = "1" departSpeed="11.180000"/>
	<vehicle id="SX_110" type="car6" route="route1_2_4" depart="31" departLane = "1" departSpeed="11.180000"/>
	<vehicle id="SX_111" type="car8" route="route1_4_2" depart="31" departLane = "1" departSpeed="11.180000"/>
	<vehicle id="LX_112" type="car9" route="route0_1_2" depart="32" departLane = "2" departSpeed="11.180000"/>
	<vehicle id="RX_113" type="car7" route="route0_2_1" depart="32" departLane = "0" departSpeed="11.180000"/>
	<vehicle id="LX_114" type="car5" route="route1_2_3" depart="32" departLane = "2" departSpeed="11.180000"/>
	<vehicle id="LX_115" type="car6" route="route1_3_4" depart="32" departLane = "2" departSpeed="11.180000"/>
	<vehicle id="LR_116" type="car6" route="route1_4_1" depart="32" departLane = "2" departSpeed="11.180000"/>
	<vehicle id="LX_117" type="car6" route="route0_1_2" depart="33" departLane = "2" departSpeed="11.180000"/>
	<vehicle id="SX_118" type="car9" route="route0_2_4" depart="33" departLane = "1" departSpeed="11.180000"/>
	<vehicle id="LX_119" type="car7" route="route0_4_1" depart="33" departLane = "2" departSpeed="11.180000"/>
	<vehicle id="RX_120" type="car9" route="route1_3_2" depart="33" departLane = "0" departSpeed="11.180000"/>
	<vehicle id="RX_121" type="car8" route="route1_4_3" depart="33" departLane = "0" departSpeed="11.180000"/>
	<vehicle id="RX_122" type="car9" route="route1_3_2" depart="34" departLane = "0" departSpeed="11.180000"/>
	<vehicle id="RX_123" type="car9" route="route1_4_3" depart="34" departLane = "0" departSpeed="11.180000"/>
	<vehicle id="RX_124" type="car6" route="route0_1_4" depart="35" departLane = "0" departSpeed="11.180000"/>
	<vehicle id="LX_125" type="car7" route="route0_4_1" depart="35" departLane = "2" departSpeed="11.180000"/>
	<vehicle id="LX_126" type="car9" route="route1_2_3" depart="35" departLane = "2" departSpeed="11.180000"/>
	<vehicle id="LX_127" type="car9" route="route0_1_2" depart="36" departLane = "2" departSpeed="11.180000"/>
	<vehicle id="RX_128" type="car9" route="route0_2_1" depart="36" departLane = "0" departSpeed="11.180000"/>
	<vehicle id="RS_129" type="car7" route="route1_2_1" depart="36" departLane = "0" departSpeed="11.180000"/>
	<vehicle id="LL_130" type="car6" route="route1_4_1" depart="36" departLane = "2" departSpeed="11.180000"/>
	<vehicle id="RX_131" type="car9" route="route0_2_1" depart="37" departLane = "0" departSpeed="11.180000"/>
	<vehicle id="SX_132" type="car6" route="route0_4_2" depart="37" departLane = "1" departSpeed="11.180000"/>
	<vehicle id="LX_133" type="car9" route="route1_3_4" depart="37" departLane = "2" departSpeed="11.180000"/>
	<vehicle id="SX_134" type="car6" route="route0_4_2" depart="38" departLane = "1" departSpeed="11.180000"/>
	<vehicle id="RS_135" type="car5" route="route1_2_1" depart="38" departLane = "0" departSpeed="11.180000"/>
	<vehicle id="LS_136" type="car9" route="route0_2_3" depart="39" departLane = "2" departSpeed="11.180000"/>
	<vehicle id="RL_137" type="car8" route="route0_4_3" depart="39" departLane = "0" departSpeed="11.180000"/>
	<vehicle id="LX_138" type="car5" route="route1_3_4" depart="39" departLane = "2" departSpeed="11.180000"/>
	<vehicle id="RX_139" type="car8" route="route1_4_3" depart="39" departLane = "0" departSpeed="11.180000"/>
	<vehicle id="LX_140" type="car5" route="route0_1_2" depart="40" departLane = "2" departSpeed="11.180000"/>
	<vehicle id="LL_141" type="car6" route="route0_2_3" depart="40" departLane = "2" departSpeed="11.180000"/>
	<vehicle id="LX_142" type="car8" route="route0_4_1" depart="40" departLane = "2" departSpeed="11.180000"/>
	<vehicle id="LX_143" type="car8" route="route1_2_3" depart="40" departLane = "2" departSpeed="11.180000"/>
	<vehicle id="RX_144" type="car6" route="route1_4_3" depart="40" departLane = "0" departSpeed="11.180000"/>
	<vehicle id="LX_145" type="car9" route="route0_1_2" depart="41" departLane = "2" departSpeed="11.180000"/>
	<vehicle id="LL_146" type="car6" route="route0_2_3" depart="41" departLane = "2" departSpeed="11.180000"/>
	<vehicle id="SX_147" type="car7" route="route0_4_2" depart="41" departLane = "1" departSpeed="11.180000"/>
	<vehicle id="LX_148" type="car8" route="route1_2_3" depart="41" departLane = "2" departSpeed="11.180000"/>
	<vehicle id="RX_149" type="car8" route="route1_3_2" depart="41" departLane = "0" departSpeed="11.180000"/>
	<vehicle id="SX_150" type="car7" route="route1_4_2" depart="41" departLane = "1" departSpeed="11.180000"/>
	<vehicle id="LX_151" type="car6" route="route0_1_2" depart="42" departLane = "2" departSpeed="11.180000"/>
	<vehicle id="RX_152" type="car6" route="route0_2_1" depart="42" departLane = "0" departSpeed="11.180000"/>
	<vehicle id="SX_153" type="car9" route="route0_4_2" depart="42" departLane = "1" departSpeed="11.180000"/>
	<vehicle id="RL_154" type="car8" route="route0_4_3" depart="43" departLane = "0" departSpeed="11.180000"/>
	<vehicle id="LX_155" type="car8" route="route1_2_3" depart="43" departLane = "2" departSpeed="11.180000"/>
	<vehicle id="RX_156" type="car6" route="route1_4_3" depart="43" departLane = "0" departSpeed="11.180000"/>
	<vehicle id="LR_157" type="car5" route="route0_2_3" depart="44" departLane = "2" departSpeed="11.180000"/>
	<vehicle id="RS_158" type="car8" route="route0_4_3" depart="44" departLane = "0" departSpeed="11.180000"/>
	<vehicle id="RR_159" type="car7" route="route1_2_1" depart="44" departLane = "0" departSpeed="11.180000"/>
	<vehicle id="RX_160" type="car9" route="route1_3_2" depart="44" departLane = "0" departSpeed="11.180000"/>
	<vehicle id="LS_161" type="car5" route="route1_4_1" depart="44" departLane = "2" departSpeed="11.180000"/>
	<vehicle id="RX_162" type="car8" route="route0_2_1" depart="45" departLane = "0" departSpeed="11.180000"/>
	<vehicle id="RR_163" type="car8" route="route1_2_1" depart="45" departLane = "0" departSpeed="11.180000"/>
	<vehicle id="LX_164" type="car5" route="route0_1_2" depart="46" departLane = "2" departSpeed="11.180000"/>
	<vehicle id="RX_165" type="car5" route="route1_3_2" depart="46" departLane = "0" departSpeed="11.180000"/>
	<vehicle id="LL_166" type="car5" route="route0_2_3" depart="47" departLane = "2" departSpeed="11.180000"/>
	<vehicle id="RL_167" type="car7" route="route0_4_3" depart="47" departLane = "0" departSpeed="11.180000"/>
	<vehicle id="RL_168" type="car5" route="route1_2_1" depart="47" departLane = "0" departSpeed="11.180000"/>
	<vehicle id="LX_169" type="car5" route="route1_3_4" depart="47" departLane = "2" departSpeed="11.180000"/>
	<vehicle id="LX_170" type="car8" route="route0_4_1" depart="48" departLane = "2" departSpeed="11.180000"/>
	<vehicle id="SX_171" type="car7" route="route1_2_4" depart="48" departLane = "1" departSpeed="11.180000"/>
	<vehicle id="LX_172" type="car5" route="route1_3_4" depart="48" departLane = "2" departSpeed="11.180000"/>
	<vehicle id="SX_173" type="car7" route="route1_4_2" depart="48" departLane = "1" departSpeed="11.180000"/>
	<vehicle id="RL_174" type="car7" route="route0_4_3" depart="49" departLane = "0" departSpeed="11.180000"/>
	<vehicle id="LX_175" type="car7" route="route1_2_3" depart="49" departLane = "2" departSpeed="11.180000"/>
	<vehicle id="SL_176" type="car5" route="route1_3_1" depart="49" departLane = "1" departSpeed="11.180000"/>
	<vehicle id="SX_177" type="car7" route="route1_4_2" depart="49" departLane = "1" departSpeed="11.180000"/>
	<vehicle id="SS_178" type="car6" route="route0_1_3" depart="50" departLane = "1" departSpeed="11.180000"/>
	<vehicle id="LX_179" type="car5" route="route0_4_1" depart="50" departLane = "2" departSpeed="11.180000"/>
	<vehicle id="RR_180" type="car8" route="route1_2_1" depart="50" departLane = "0" departSpeed="11.180000"/>
	<vehicle id="SX_181" type="car5" route="route1_4_2" depart="50" departLane = "1" departSpeed="11.180000"/>
	<vehicle id="SX_182" type="car9" route="route0_2_4" depart="51" departLane = "1" departSpeed="11.180000"/>
	<vehicle id="LX_183" type="car5" route="route1_2_3" depart="51" departLane = "2" departSpeed="11.180000"/>
	<vehicle id="RX_184" type="car7" route="route0_2_1" depart="52" departLane = "0" departSpeed="11.180000"/>
	<vehicle id="LX_185" type="car6" route="route0_4_1" depart="52" departLane = "2" departSpeed="11.180000"/>
	<vehicle id="LX_186" type="car5" route="route1_3_4" depart="52" departLane = "2" departSpeed="11.180000"/>
	<vehicle id="LL_187" type="car9" route="route1_4_1" depart="52" departLane = "2" departSpeed="11.180000"/>
	<vehicle id="RX_188" type="car8" route="route0_1_4" depart="53" departLane = "0" departSpeed="11.180000"/>
	<vehicle id="SX_189" type="car8" route="route0_4_2" depart="53" departLane = "1" departSpeed="11.180000"/>
	<vehicle id="RX_190" type="car5" route="route1_3_2" depart="53" departLane = "0" departSpeed="11.180000"/>
	<vehicle id="LL_191" type="car7" route="route1_4_1" depart="53" departLane = "2" departSpeed="11.180000"/>
	<vehicle id="RX_192" type="car6" route="route0_1_4" depart="54" departLane = "0" departSpeed="11.180000"/>
	<vehicle id="LL_193" type="car6" route="route0_2_3" depart="54" departLane = "2" departSpeed="11.180000"/>
	<vehicle id="RX_194" type="car5" route="route1_3_2" depart="54" departLane = "0" departSpeed="11.180000"/>
	<vehicle id="RX_195" type="car9" route="route1_4_3" depart="54" departLane = "0" departSpeed="11.180000"/>
	<vehicle id="LR_196" type="car9" route="route0_2_3" depart="55" departLane = "2" departSpeed="11.180000"/>
	<vehicle id="LX_197" type="car7" route="route1_2_3" depart="55" departLane = "2" departSpeed="11.180000"/>
	<vehicle id="SS_198" type="car8" route="route1_3_1" depart="55" departLane = "1" departSpeed="11.180000"/>
	<vehicle id="RX_199" type="car5" route="route0_1_4" depart="56" departLane = "0" departSpeed="11.180000"/>
	<vehicle id="RX_200" type="car5" route="route0_2_1" depart="56" departLane = "0" departSpeed="11.180000"/>
	<vehicle id="SX_201" type="car7" route="route1_2_4" depart="56" departLane = "1" departSpeed="11.180000"/>
	<vehicle id="SL_202" type="car5" route="route1_3_1" depart="56" departLane = "1" departSpeed="11.180000"/>
	<vehicle id="RX_203" type="car7" route="route1_4_3" depart="56" departLane = "0" departSpeed="11.180000"/>
	<vehicle id="SL_204" type="car7" route="route0_1_3" depart="57" departLane = "1" departSpeed="11.180000"/>
	<vehicle id="RX_205" type="car9" route="route0_2_1" depart="57" departLane = "0" departSpeed="11.180000"/>
	<vehicle id="RS_206" type="car7" route="route1_2_1" depart="58" departLane = "0" departSpeed="11.180000"/>
	<vehicle id="LX_207" type="car8" route="route1_3_4" depart="58" departLane = "2" departSpeed="11.180000"/>
	<vehicle id="RX_208" type="car8" route="route1_4_3" depart="58" departLane = "0" departSpeed="11.180000"/>
	<vehicle id="RX_209" type="car7" route="route0_1_4" depart="59" departLane = "0" departSpeed="11.180000"/>
	<vehicle id="SX_210" type="car8" route="route0_2_4" depart="59" departLane = "1" departSpeed="11.180000"/>
	<vehicle id="LX_211" type="car7" route="route0_4_1" depart="59" departLane = "2" departSpeed="11.180000"/>
	<vehicle id="RX_212" type="car6" route="route1_3_2" depart="59" departLane = "0" departSpeed="11.180000"/>
	<vehicle id="LL_213" type="car6" route="route1_4_1" depart="59" departLane = "2" departSpeed="11.180000"/>
	<vehicle id="SR_214" type="car9" route="route1_3_1" depart="60" departLane = "1" departSpeed="11.180000"/>
	<vehicle id="LS_215" type="car8" route="route1_4_1" depart="60" departLane = "2" departSpeed="11.180000"/>
	<vehicle id="SS_216" type="car6" route="route0_1_3" depart="61" departLane = "1" departSpeed="11.180000"/>
	<vehicle id="LX_217" type="car7" route="route0_4_1" depart="61" departLane = "2" departSpeed="11.180000"/>
	<vehicle id="LX_218" type="car9" route="route1_2_3" depart="61" departLane = "2" departSpeed="11.180000"/>
	<vehicle id="SL_219" type="car6" route="route1_3_1" depart="61" departLane = "1" departSpeed="11.180000"/>
	<vehicle id="LX_220" type="car8" route="route0_4_1" depart="62" departLane = "2" departSpeed="11.180000"/>
	<vehicle id="SX_221" type="car7" route="route1_2_4" depart="62" departLane = "1" departSpeed="11.180000"/>
	<vehicle id="SL_222" type="car9" route="route1_3_1" depart="62" departLane = "1" departSpeed="11.180000"/>
	<vehicle id="SX_223" type="car7" route="route0_4_2" depart="63" departLane = "1" departSpeed="11.180000"/>
	<vehicle id="LX_224" type="car9" route="route1_2_3" depart="63" departLane = "2" departSpeed="11.180000"/>
	<vehicle id="LX_225" type="car9" route="route1_3_4" depart="63" departLane = "2" departSpeed="11.180000"/>
	<vehicle id="RX_226" type="car7" route="route0_1_4" depart="64" departLane = "0" departSpeed="11.180000"/>
	<vehicle id="LR_227" type="car8" route="route0_2_3" depart="64" departLane = "2" departSpeed="11.180000"/>
	<vehicle id="RS_228" type="car6" route="route0_4_3" depart="64" departLane = "0" departSpeed="11.180000"/>
	<vehicle id="RX_229" type="car8" route="route1_4_3" depart="64" departLane = "0" departSpeed="11.180000"/>
	<vehicle id="SS_230" type="car6" route="route0_1_3" depart="65" departLane = "1" departSpeed="11.180000"/>
	<vehicle id="SS_231" type="car5" route="route1_3_1" depart="65" departLane = "1" departSpeed="11.180000"/>
	<vehicle id="RX_232" type="car6" route="route1_4_3" depart="65" departLane = "0" departSpeed="11.180000"/>
	<vehicle id="LS_233" type="car9" route="route0_2_3" depart="66" departLane = "2" departSpeed="11.180000"/>
	<vehicle id="RS_234" type="car8" route="route1_2_1" depart="66" departLane = "0" departSpeed="11.180000"/>
	<vehicle id="SX_235" type="car9" route="route0_4_2" depart="67" departLane = "1" departSpeed="11.180000"/>
	<vehicle id="SX_236" type="car6" route="route1_2_4" depart="67" departLane = "1" departSpeed="11.180000"/>
	<vehicle id="RR_237" type="car9" route="route0_4_3" depart="68" departLane = "0" departSpeed="11.180000"/>
	<vehicle id="LX_238" type="car9" route="route1_2_3" depart="68" departLane = "2" departSpeed="11.180000"/>
	<vehicle id="RX_239" type="car8" route="route1_4_3" depart="68" departLane = "0" departSpeed="11.180000"/>
	<vehicle id="SX_240" type="car7" route="route0_4_2" depart="69" departLane = "1" departSpeed="11.180000"/>
	<vehicle id="LX_241" type="car6" route="route1_2_3" depart="69" departLane = "2" departSpeed="11.180000"/>
	<vehicle id="RX_242" type="car5" route="route0_1_4" depart="70" departLane = "0" departSpeed="11.180000"/>
	<vehicle id="LX_243" type="car5" route="route0_4_1" depart="70" departLane = "2" departSpeed="11.180000"/>
	<vehicle id="SR_244" type="car9" route="route1_3_1" depart="70" departLane = "1" departSpeed="11.180000"/>
	<vehicle id="LL_245" type="car5" route="route0_2_3" depart="71" departLane = "2" departSpeed="11.180000"/>
	<vehicle id="SX_246" type="car9" route="route0_4_2" depart="71" departLane = "1" departSpeed="11.180000"/>
	<vehicle id="RX_247" type="car7" route="route1_4_3" depart="71" departLane = "0" departSpeed="11.180000"/>
	<vehicle id="LX_248" type="car6" route="route0_1_2" depart="72" departLane = "2" departSpeed="11.180000"/>
	<vehicle id="RL_249" type="car5" route="route0_4_3" depart="72" departLane = "0" departSpeed="11.180000"/>
	<vehicle id="RR_250" type="car6" route="route1_2_1" depart="72" departLane = "0" departSpeed="11.180000"/>
	<vehicle id="LX_251" type="car7" route="route0_1_2" depart="73" departLane = "2" departSpeed="11.180000"/>
	<vehicle id="RX_252" type="car7" route="route0_2_1" depart="73" departLane = "0" departSpeed="11.180000"/>
	<vehicle id="SX_253" type="car8" route="route0_4_2" depart="73" departLane = "1" departSpeed="11.180000"/>
	<vehicle id="SR_254" type="car8" route="route1_3_1" depart="73" departLane = "1" departSpeed="11.180000"/>
	<vehicle id="SS_255" type="car9" route="route0_1_3" depart="74" departLane = "1" departSpeed="11.180000"/>
	<vehicle id="LL_256" type="car5" route="route0_2_3" depart="74" departLane = "2" departSpeed="11.180000"/>
	<vehicle id="LL_257" type="car9" route="route1_4_1" depart="74" departLane = "2" departSpeed="11.180000"/>
	<vehicle id="SX_258" type="car5" route="route0_2_4" depart="75" departLane = "1" departSpeed="11.180000"/>
	<vehicle id="RL_259" type="car7" route="route0_4_3" depart="75" departLane = "0" departSpeed="11.180000"/>
	<vehicle id="SX_260" type="car8" route="route1_2_4" depart="75" departLane = "1" departSpeed="11.180000"/>