<routes>

	<vType id="car5" accel="1000.0" decel="1000.0" sigma="0.0" length="5" minGap="3.000000" maxSpeed="11.180000" tau="0.100000" carFollowModel="CACC" color="255,255,255"/>
	<vType id="car6" accel="1000.0" decel="1000.0" sigma="0.0" length="6" minGap="3.000000" maxSpeed="11.180000" tau="0.100000" carFollowModel="CACC" color="255,255,255"/>
	<vType id="car7" accel="1000.0" decel="1000.0" sigma="0.0" length="7" minGap="3.000000" maxSpeed="11.180000" tau="0.100000" carFollowModel="CACC" color="255,255,255"/>
	<vType id="car8" accel="1000.0" decel="1000.0" sigma="0.0" length="8" minGap="3.000000" maxSpeed="11.180000" tau="0.100000" carFollowModel="CACC" color="255,255,255"/>
	<vType id="car9" accel="1000.0" decel="1000.0" sigma="0.0" length="9" minGap="3.000000" maxSpeed="11.180000" tau="0.100000" carFollowModel="CACC" color="255,255,255"/>

	<route id="route1_2" edges=" 1 -2"/>
	<route id="route1_3" edges=" 1 -3"/>
	<route id="route1_4" edges=" 1 -4"/>
	<route id="route2_1" edges=" 2 -1"/>
	<route id="route2_3" edges=" 2 -3"/>
	<route id="route2_4" edges=" 2 -4"/>
	<route id="route3_1" edges=" 3 -1"/>
	<route id="route3_2" edges=" 3 -2"/>
	<route id="route3_4" edges=" 3 -4"/>
	<route id="route4_1" edges=" 4 -1"/>
	<route id="route4_2" edges=" 4 -2"/>
	<route id="route4_3" edges=" 4 -3"/>

	<vehicle id="R_0" type="car7" route="route1_4" depart="0" departLane = "0" departSpeed="11.180000"/>
	<vehicle id="S_1" type="car6" route="route3_1" depart="0" departLane = "2" departSpeed="11.180000"/>
	<vehicle id="R_2" type="car8" route="route4_3" depart="0" departLane = "2" departSpeed="11.180000"/>
	<vehicle id="L_3" type="car9" route="route1_2" depart="1" departLane = "1" departSpeed="11.180000"/>
	<vehicle id="R_4" type="car8" route="route2_1" depart="1" departLane = "1" departSpeed="11.180000"/>
	<vehicle id="S_5" type="car6" route="route4_2" depart="1" departLane = "1" departSpeed="11.180000"/>
	<vehicle id="L_6" type="car9" route="route1_2" depart="2" departLane = "0" departSpeed="11.180000"/>
	<vehicle id="L_7" type="car9" route="route2_3" depart="2" departLane = "0" departSpeed="11.180000"/>
	<vehicle id="S_8" type="car9" route="route3_1" depart="2" departLane = "1" departSpeed="11.180000"/>
	<vehicle id="L_9" type="car6" route="route4_1" depart="2" departLane = "2" departSpeed="11.180000"/>
	<vehicle id="R_10" type="car8" route="route1_4" depart="3" departLane = "1" departSpeed="11.180000"/>
	<vehicle id="R_11" type="car8" route="route2_1" depart="3" departLane = "0" departSpeed="11.180000"/>
	<vehicle id="S_12" type="car6" route="route1_3" depart="5" departLane = "0" departSpeed="11.180000"/>
	<vehicle id="L_13" type="car7" route="route3_4" depart="5" departLane = "2" departSpeed="11.180000"/>
	<vehicle id="L_14" type="car5" route="route4_1" depart="5" departLane = "2" departSpeed="11.180000"/>
	<vehicle id="L_15" type="car6" route="route2_3" depart="6" departLane = "2" departSpeed="11.180000"/>
	<vehicle id="L_16" type="car6" route="route3_4" depart="6" departLane = "2" departSpeed="11.180000"/>
	<vehicle id="S_17" type="car9" route="route1_3" depart="7" departLane = "2" departSpeed="11.180000"/>
	<vehicle id="S_18" type="car7" route="route2_4" depart="7" departLane = "1" departSpeed="11.180000"/>
	<vehicle id="L_19" type="car9" route="route3_4" depart="7" departLane = "2" departSpeed="11.180000"/>
	<vehicle id="S_20" type="car8" route="route1_3" depart="8" departLane = "0" departSpeed="11.180000"/>
	<vehicle id="L_21" type="car7" route="route2_3" depart="8" departLane = "2" departSpeed="11.180000"/>
	<vehicle id="R_22" type="car5" route="route2_1" depart="9" departLane = "2" departSpeed="11.180000"/>
	<vehicle id="S_23" type="car7" route="route3_1" depart="9" departLane = "1" departSpeed="11.180000"/>
	<vehicle id="S_24" type="car7" route="route4_2" depart="9" departLane = "2" departSpeed="11.180000"/>
	<vehicle id="L_25" type="car8" route="route3_4" depart="10" departLane = "0" departSpeed="11.180000"/>
	<vehicle id="L_26" type="car7" route="route1_2" depart="11" departLane = "0" departSpeed="11.180000"/>
	<vehicle id="L_27" type="car7" route="route2_3" depart="11" departLane = "0" departSpeed="11.180000"/>
	<vehicle id="L_28" type="car6" route="route3_4" depart="11" departLane = "0" departSpeed="11.180000"/>
	<vehicle id="L_29" type="car5" route="route4_1" depart="11" departLane = "1" departSpeed="11.180000"/>
	<vehicle id="S_30" type="car6" route="route2_4" depart="12" departLane = "0" departSpeed="11.180000"/>
	<vehicle id="S_31" type="car7" route="route3_1" depart="12" departLane = "1" departSpeed="11.180000"/>
	<vehicle id="L_32" type="car8" route="route1_2" depart="13" departLane = "0" departSpeed="11.180000"/>
	<vehicle id="S_33" type="car7" route="route2_4" depart="13" departLane = "0" departSpeed="11.180000"/>
	<vehicle id="L_34" type="car7" route="route3_4" depart="13" departLane = "0" departSpeed="11.180000"/>
	<vehicle id="S_35" type="car6" route="route4_2" depart="13" departLane = "1" departSpeed="11.180000"/>
	<vehicle id="R_36" type="car5" route="route1_4" depart="14" departLane = "1" departSpeed="11.180000"/>
	<vehicle id="L_37" type="car8" route="route2_3" depart="14" departLane = "1" departSpeed="11.180000"/>
	<vehicle id="L_38" type="car6" route="route4_1" depart="14" departLane = "0" departSpeed="11.180000"/>
	<vehicle id="L_39" type="car9" route="route1_2" depart="15" departLane = "2" departSpeed="11.180000"/>
	<vehicle id="S_40" type="car5" route="route3_1" depart="15" departLane = "0" departSpeed="11.180000"/>
	<vehicle id="S_41" type="car9" route="route4_2" depart="15" departLane = "2" departSpeed="11.180000"/>
	<vehicle id="S_42" type="car6" route="route1_3" depart="16" departLane = "0" departSpeed="11.180000"/>
	<vehicle id="S_43" type="car9" route="route4_2" depart="16" departLane = "1" departSpeed="11.180000"/>
	<vehicle id="L_44" type="car5" route="route1_2" depart="17" departLane = "0" departSpeed="11.180000"/>
	<vehicle id="S_45" type="car5" route="route2_4" depart="17" departLane = "1" departSpeed="11.180000"/>
	<vehicle id="S_46" type="car6" route="route3_1" depart="17" departLane = "2" departSpeed="11.180000"/>
	<vehicle id="R_47" type="car8" route="route4_3" depart="17" departLane = "2" departSpeed="11.180000"/>
	<vehicle id="S_48" type="car8" route="route1_3" depart="18" departLane = "2" departSpeed="11.180000"/>
	<vehicle id="S_49" type="car6" route="route4_2" depart="18" departLane = "0" departSpeed="11.180000"/>
	<vehicle id="R_50" type="car8" route="route1_4" depart="19" departLane = "1" departSpeed="11.180000"/>
	<vehicle id="L_51" type="car5" route="route2_3" depart="19" departLane = "0" departSpeed="11.180000"/>
	<vehicle id="R_52" type="car5" route="route1_4" depart="20" departLane = "2" departSpeed="11.180000"/>
	<vehicle id="R_53" type="car6" route="route2_1" depart="20" departLane = "2" departSpeed="11.180000"/>
	<vehicle id="L_54" type="car7" route="route3_4" depart="20" departLane = "0" departSpeed="11.180000"/>
	<vehicle id="L_55" type="car9" route="route4_1" depart="20" departLane = "2" departSpeed="11.180000"/>
	<vehicle id="L_56" type="car8" route="route1_2" depart="22" departLane = "0" departSpeed="11.180000"/>
	<vehicle id="R_57" type="car7" route="route2_1" depart="22" departLane = "2" departSpeed="11.180000"/>
	<vehicle id="R_58" type="car6" route="route3_2" depart="22" departLane = "0" departSpeed="11.180000"/>
	<vehicle id="R_59" type="car7" route="route4_3" depart="22" departLane = "1" departSpeed="11.180000"/>
	<vehicle id="S_60" type="car9" route="route2_4" depart="23" departLane = "1" departSpeed="11.180000"/>
	<vehicle id="L_61" type="car8" route="route4_1" depart="23" departLane = "1" departSpeed="11.180000"/>
	<vehicle id="L_62" type="car9" route="route2_3" depart="24" departLane = "1" departSpeed="11.180000"/>
	<vehicle id="L_63" type="car7" route="route4_1" depart="24" departLane = "2" departSpeed="11.180000"/>
	<vehicle id="L_64" type="car8" route="route1_2" depart="25" departLane = "0" departSpeed="11.180000"/>
	<vehicle id="R_65" type="car9" route="route2_1" depart="25" departLane = "0" departSpeed="11.180000"/>
	<vehicle id="L_66" type="car9" route="route3_4" depart="25" departLane = "0" departSpeed="11.180000"/>
	<vehicle id="R_67" type="car9" route="route4_3" depart="25" departLane = "2" departSpeed="11.180000"/>
	<vehicle id="R_68" type="car8" route="route2_1" depart="26" departLane = "1" departSpeed="11.180000"/>
	<vehicle id="L_69" type="car7" route="route4_1" depart="26" departLane = "1" departSpeed="11.180000"/>
	<vehicle id="R_70" type="car7" route="route1_4" depart="27" departLane = "1" departSpeed="11.180000"/>
	<vehicle id="L_71" type="car7" route="route4_1" depart="27" departLane = "2" departSpeed="11.180000"/>
	<vehicle id="S_72" type="car9" route="route2_4" depart="28" departLane = "0" departSpeed="11.180000"/>
	<vehicle id="S_73" type="car9" route="route4_2" depart="28" departLane = "2" departSpeed="11.180000"/>
	<vehicle id="L_74" type="car5" route="route2_3" depart="29" departLane = "1" departSpeed="11.180000"/>
	<vehicle id="S_75" type="car7" route="route3_1" depart="29" departLane = "1" departSpeed="11.180000"/>
	<vehicle id="R_76" type="car6" route="route4_3" depart="29" departLane = "2" departSpeed="11.180000"/>
	<vehicle id="R_77" type="car5" route="route1_4" depart="30" departLane = "2" departSpeed="11.180000"/>
	<vehicle id="R_78" type="car5" route="route3_2" depart="30" departLane = "0" departSpeed="11.180000"/>
	<vehicle id="S_79" type="car5" route="route4_2" depart="30" departLane = "1" departSpeed="11.180000"/>
	<vehicle id="R_80" type="car6" route="route1_4" depart="31" departLane = "1" departSpeed="11.180000"/>
	<vehicle id="S_81" type="car7" route="route3_1" depart="31" departLane = "2" departSpeed="11.180000"/>
	<vehicle id="L_82" type="car5" route="route1_2" depart="32" departLane = "0" departSpeed="11.180000"/>
	<vehicle id="S_83" type="car6" route="route3_1" depart="32" departLane = "2" departSpeed="11.180000"/>
	<vehicle id="R_84" type="car5" route="route1_4" depart="33" departLane = "1" departSpeed="11.180000"/>
	<vehicle id="R_85" type="car8" route="route2_1" depart="33" departLane = "0" departSpeed="11.180000"/>
	<vehicle id="L_86" type="car8" route="route3_4" depart="33" departLane = "0" departSpeed="11.180000"/>
	<vehicle id="S_87" type="car9" route="route4_2" depart="33" departLane = "2" departSpeed="11.180000"/>
	<vehicle id="S_88" type="car6" route="route1_3" depart="34" departLane = "0" departSpeed="11.180000"/>
	<vehicle id="L_89" type="car5" route="route2_3" depart="34" departLane = "2" departSpeed="11.180000"/>
	<vehicle id="L_90" type="car8" route="route4_1" depart="34" departLane = "2" departSpeed="11.180000"/>
	<vehicle id="R_91" type="car7" route="route2_1" depart="35" departLane = "1" departSpeed="11.180000"/>
	<vehicle id="R_92" type="car5" route="route3_2" depart="35" departLane = "0" departSpeed="11.180000"/>
	<vehicle id="L_93" type="car6" route="route3_4" depart="36" departLane = "2" departSpeed="11.180000"/>
	<vehicle id="R_94" type="car5" route="route4_3" depart="36" departLane = "0" departSpeed="11.180000"/>
	<vehicle id="R_95" type="car6" route="route2_1" depart="37" departLane = "1" departSpeed="11.180000"/>
	<vehicle id="R_96" type="car5" route="route3_2" depart="37" departLane = "2" departSpeed="11.180000"/>
	<vehicle id="S_97" type="car6" route="route4_2" depart="37" departLane = "0" departSpeed="11.180000"/>
	<vehicle id="R_98" type="car7" route="route4_3" depart="39" departLane = "2" departSpeed="11.180000"/>
	<vehicle id="S_99" type="car7" route="route4_2" depart="40" departLane = "0" departSpeed="11.180000"/>
	<vehicle id="S_100" type="car5" route="route1_3" depart="41" departLane = "2" departSpeed="11.180000"/>
	<vehicle id="S_101" type="car7" route="route4_2" depart="41" departLane = "1" departSpeed="11.180000"/>
	<vehicle id="L_102" type="car9" route="route1_2" depart="42" departLane = "0" departSpeed="11.180000"/>
	<vehicle id="R_103" type="car6" route="route3_2" depart="42" departLane = "0" departSpeed="11.180000"/>
	<vehicle id="L_104" type="car9" route="route4_1" depart="43" departLane = "2" departSpeed="11.180000"/>
	<vehicle id="L_105" type="car8" route="route1_2" depart="44" departLane = "1" departSpeed="11.180000"/>
	<vehicle id="S_106" type="car9" route="route3_1" depart="44" departLane = "2" departSpeed="11.180000"/>
	<vehicle id="L_107" type="car7" route="route4_1" depart="44" departLane = "1" departSpeed="11.180000"/>
	<vehicle id="L_108" type="car7" route="route3_4" depart="45" departLane = "1" departSpeed="11.180000"/>
	<vehicle id="R_109" type="car8" route="route2_1" depart="46" departLane = "1" departSpeed="11.180000"/>
	<vehicle id="L_110" type="car6" route="route4_1" depart="46" departLane = "1" departSpeed="11.180000"/>
	<vehicle id="S_111" type="car5" route="route2_4" depart="47" departLane = "2" departSpeed="11.180000"/>
	<vehicle id="S_112" type="car8" route="route1_3" depart="48" departLane = "1" departSpeed="11.180000"/>
	<vehicle id="S_113" type="car8" route="route2_4" depart="48" departLane = "2" departSpeed="11.180000"/>
	<vehicle id="S_114" type="car7" route="route3_1" depart="48" departLane = "2" departSpeed="11.180000"/>
	<vehicle id="L_115" type="car9" route="route1_2" depart="49" departLane = "1" departSpeed="11.180000"/>
	<vehicle id="R_116" type="car9" route="route2_1" depart="49" departLane = "2" departSpeed="11.180000"/>
	<vehicle id="L_117" type="car6" route="route4_1" depart="49" departLane = "1" departSpeed="11.180000"/>
	<vehicle id="R_118" type="car8" route="route2_1" depart="50" departLane = "2" departSpeed="11.180000"/>
	<vehicle id="R_119" type="car7" route="route4_3" depart="50" departLane = "1" departSpeed="11.180000"/>
	<vehicle id="S_120" type="car6" route="route1_3" depart="51" departLane = "0" departSpeed="11.180000"/>
	<vehicle id="L_121" type="car8" route="route2_3" depart="51" departLane = "1" departSpeed="11.180000"/>
	<vehicle id="R_122" type="car7" route="route4_3" depart="51" departLane = "1" departSpeed="11.180000"/>
	<vehicle id="R_123" type="car5" route="route1_4" depart="52" departLane = "2" departSpeed="11.180000"/>
	<vehicle id="R_124" type="car5" route="route2_1" depart="52" departLane = "0" departSpeed="11.180000"/>
	<vehicle id="L_125" type="car9" route="route3_4" depart="52" departLane = "1" departSpeed="11.180000"/>
	<vehicle id="R_126" type="car9" route="route1_4" depart="53" departLane = "2" departSpeed="11.180000"/>
	<vehicle id="R_127" type="car9" route="route3_2" depart="54" departLane = "1" departSpeed="11.180000"/>
	<vehicle id="L_128" type="car9" route="route2_3" depart="55" departLane = "0" departSpeed="11.180000"/>
	<vehicle id="L_129" type="car6" route="route3_4" depart="55" departLane = "0" departSpeed="11.180000"/>
	<vehicle id="L_130" type="car5" route="route2_3" depart="56" departLane = "0" departSpeed="11.180000"/>
	<vehicle id="S_131" type="car7" route="route3_1" depart="56" departLane = "1" departSpeed="11.180000"/>
	<vehicle id="S_132" type="car9" route="route4_2" depart="56" departLane = "1" departSpeed="11.180000"/>
	<vehicle id="R_133" type="car6" route="route2_1" depart="57" departLane = "0" departSpeed="11.180000"/>
	<vehicle id="R_134" type="car5" route="route3_2" depart="57" departLane = "0" departSpeed="11.180000"/>
	<vehicle id="L_135" type="car6" route="route4_1" depart="57" departLane = "0" departSpeed="11.180000"/>
	<vehicle id="S_136" type="car6" route="route1_3" depart="58" departLane = "2" departSpeed="11.180000"/>
	<vehicle id="S_137" type="car7" route="route2_4" depart="58" departLane = "1" departSpeed="11.180000"/>
	<vehicle id="S_138" type="car6" route="route3_1" depart="58" departLane = "0" departSpeed="11.180000"/>
	<vehicle id="R_139" type="car8" route="route4_3" depart="58" departLane = "2" departSpeed="11.180000"/>
	<vehicle id="L_140" type="car7" route="route1_2" depart="59" departLane = "0" departSpeed="11.180000"/>
	<vehicle id="R_141" type="car7" route="route4_3" depart="59" departLane = "1" departSpeed="11.180000"/>
	<vehicle id="S_142" type="car9" route="route3_1" depart="60" departLane = "1" departSpeed="11.180000"/>
	<vehicle id="R_143" type="car6" route="route3_2" depart="61" departLane = "1" departSpeed="11.180000"/>
	<vehicle id="S_144" type="car8" route="route4_2" depart="61" departLane = "1" departSpeed="11.180000"/>
	<vehicle id="S_145" type="car5" route="route2_4" depart="63" departLane = "0" departSpeed="11.180000"/>
	<vehicle id="L_146" type="car6" route="route2_3" depart="64" departLane = "0" departSpeed="11.180000"/>
	<vehicle id="S_147" type="car5" route="route3_1" depart="64" departLane = "0" departSpeed="11.180000"/>
	<vehicle id="R_148" type="car9" route="route2_1" depart="65" departLane = "2" departSpeed="11.180000"/>
	<vehicle id="L_149" type="car5" route="route1_2" depart="66" departLane = "0" departSpeed="11.180000"/>
	<vehicle id="R_150" type="car8" route="route2_1" depart="66" departLane = "2" departSpeed="11.180000"/>
	<vehicle id="S_151" type="car7" route="route3_1" depart="67" departLane = "2" departSpeed="11.180000"/>
	<vehicle id="R_152" type="car6" route="route2_1" depart="68" departLane = "2" departSpeed="11.180000"/>
	<vehicle id="S_153" type="car8" route="route2_4" depart="69" departLane = "0" departSpeed="11.180000"/>
	<vehicle id="S_154" type="car8" route="route3_1" depart="69" departLane = "2" departSpeed="11.180000"/>
	<vehicle id="S_155" type="car5" route="route1_3" depart="70" departLane = "1" departSpeed="11.180000"/>
	<vehicle id="R_156" type="car9" route="route1_4" depart="71" departLane = "0" departSpeed="11.180000"/>
	<vehicle id="S_157" type="car9" route="route2_4" depart="71" departLane = "1" departSpeed="11.180000"/>
	<vehicle id="L_158" type="car5" route="route3_4" depart="71" departLane = "0" departSpeed="11.180000"/>
	<vehicle id="S_159" type="car8" route="route1_3" depart="72" departLane = "2" departSpeed="11.180000"/>
	<vehicle id="L_160" type="car7" route="route2_3" depart="72" departLane = "0" departSpeed="11.180000"/>
	<vehicle id="L_161" type="car7" route="route3_4" depart="72" departLane = "1" departSpeed="11.180000"/>
	<vehicle id="R_162" type="car6" route="route1_4" depart="73" departLane = "2" departSpeed="11.180000"/>
	<vehicle id="R_163" type="car6" route="route3_2" depart="73" departLane = "1" departSpeed="11.180000"/>
	<vehicle id="L_164" type="car5" route="route2_3" depart="74" departLane = "0" departSpeed="11.180000"/>
	<vehicle id="S_165" type="car9" route="route4_2" depart="74" departLane = "1" departSpeed="11.180000"/>
	<vehicle id="S_166" type="car6" route="route1_3" depart="75" departLane = "1" departSpeed="11.180000"/>
	<vehicle id="S_167" type="car9" route="route2_4" depart="75" departLane = "2" departSpeed="11.180000"/>
	<vehicle id="R_168" type="car7" route="route4_3" depart="75" departLane = "1" departSpeed="11.180000"/>
	<vehicle id="R_169" type="car8" route="route1_4" depart="76" departLane = "2" departSpeed="11.180000"/>
	<vehicle id="S_170" type="car7" route="route2_4" depart="76" departLane = "1" departSpeed="11.180000"/>
	<vehicle id="S_171" type="car7" route="route3_1" depart="76" departLane = "1" departSpeed="11.180000"/>
	<vehicle id="S_172" type="car5" route="route2_4" depart="77" departLane = "2" departSpeed="11.180000"/>
	<vehicle id="L_173" type="car5" route="route3_4" depart="77" departLane = "2" departSpeed="11.180000"/>
	<vehicle id="R_174" type="car9" route="route4_3" depart="77" departLane = "2" departSpeed="11.180000"/>
	<vehicle id="L_175" type="car5" route="route1_2" depart="78" departLane = "2" departSpeed="11.180000"/>
	<vehicle id="S_176" type="car6" route="route2_4" depart="78" departLane = "2" departSpeed="11.180000"/>
	<vehicle id="R_177" type="car9" route="route3_2" depart="78" departLane = "1" departSpeed="11.180000"/>
	<vehicle id="R_178" type="car6" route="route3_2" depart="79" departLane = "2" departSpeed="11.180000"/>
	<vehicle id="R_179" type="car8" route="route4_3" depart="79" departLane = "2" departSpeed="11.180000"/>
	<vehicle id="S_180" type="car5" route="route1_3" depart="81" departLane = "1" departSpeed="11.180000"/>
	<vehicle id="L_181" type="car9" route="route2_3" depart="81" departLane = "2" departSpeed="11.180000"/>
	<vehicle id="L_182" type="car8" route="route3_4" depart="81" departLane = "1" departSpeed="11.180000"/>
	<vehicle id="R_183" type="car8" route="route4_3" depart="81" departLane = "1" departSpeed="11.180000"/>
	<vehicle id="R_184" type="car8" route="route1_4" depart="82" departLane = "1" departSpeed="11.180000"/>
	<vehicle id="R_185" type="car6" route="route2_1" depart="82" departLane = "1" departSpeed="11.180000"/>
	<vehicle id="S_186" type="car7" route="route1_3" depart="83" departLane = "2" departSpeed="11.180000"/>
	<vehicle id="S_187" type="car7" route="route3_1" depart="83" departLane = "0" departSpeed="11.180000"/>
	<vehicle id="S_188" type="car7" route="route4_2" depart="83" departLane = "2" departSpeed="11.180000"/>
	<vehicle id="L_189" type="car7" route="route1_2" depart="84" departLane = "1" departSpeed="11.180000"/>
	<vehicle id="R_190" type="car9" route="route2_1" depart="84" departLane = "2" departSpeed="11.180000"/>
	<vehicle id="R_191" type="car9" route="route4_3" depart="84" departLane = "1" departSpeed="11.180000"/>
	<vehicle id="S_192" type="car6" route="route2_4" depart="85" departLane = "0" departSpeed="11.180000"/>
	<vehicle id="L_193" type="car6" route="route4_1" depart="85" departLane = "0" departSpeed="11.180000"/>
	<vehicle id="S_194" type="car8" route="route3_1" depart="86" departLane = "1" departSpeed="11.180000"/>
	<vehicle id="S_195" type="car8" route="route1_3" depart="87" departLane = "0" departSpeed="11.180000"/>
	<vehicle id="L_196" type="car7" route="route2_3" depart="87" departLane = "2" departSpeed="11.180000"/>
	<vehicle id="R_197" type="car9" route="route4_3" depart="87" departLane = "0" departSpeed="11.180000"/>
	<vehicle id="L_198" type="car9" route="route3_4" depart="88" departLane = "1" departSpeed="11.180000"/>
	<vehicle id="S_199" type="car6" route="route1_3" depart="89" departLane = "0" departSpeed="11.180000"/>
	<vehicle id="S_200" type="car6" route="route2_4" depart="89" departLane = "0" departSpeed="11.180000"/>
	<vehicle id="S_201" type="car5" route="route3_1" depart="89" departLane = "2" departSpeed="11.180000"/>
	<vehicle id="L_202" type="car7" route="route4_1" depart="89" departLane = "0" departSpeed="11.180000"/>
	<vehicle id="L_203" type="car9" route="route1_2" depart="90" departLane = "1" departSpeed="11.180000"/>
	<vehicle id="S_204" type="car8" route="route2_4" depart="90" departLane = "1" departSpeed="11.180000"/>
	<vehicle id="L_205" type="car7" route="route1_2" depart="91" departLane = "1" departSpeed="11.180000"/>
	<vehicle id="L_206" type="car9" route="route2_3" depart="91" departLane = "0" departSpeed="11.180000"/>
	<vehicle id="S_207" type="car6" route="route4_2" depart="91" departLane = "0" departSpeed="11.180000"/>
	<vehicle id="S_208" type="car7" route="route1_3" depart="92" departLane = "1" departSpeed="11.180000"/>
	<vehicle id="R_209" type="car5" route="route2_1" depart="92" departLane = "1" departSpeed="11.180000"/>
	<vehicle id="L_210" type="car5" route="route3_4" depart="92" departLane = "2" departSpeed="11.180000"/>
	<vehicle id="L_211" type="car5" route="route2_3" depart="93" departLane = "1" departSpeed="11.180000"/>
	<vehicle id="R_212" type="car6" route="route2_1" depart="94" departLane = "0" departSpeed="11.180000"/>
	<vehicle id="R_213" type="car7" route="route1_4" depart="96" departLane = "1" departSpeed="11.180000"/>
	<vehicle id="S_214" type="car5" route="route1_3" depart="97" departLane = "1" departSpeed="11.180000"/>
	<vehicle id="S_215" type="car5" route="route3_1" depart="97" departLane = "2" departSpeed="11.180000"/>
	<vehicle id="R_216" type="car7" route="route4_3" depart="97" departLane = "1" departSpeed="11.180000"/>
	<vehicle id="R_217" type="car6" route="route1_4" depart="98" departLane = "0" departSpeed="11.180000"/>
	<vehicle id="L_218" type="car5" route="route3_4" depart="98" departLane = "2" departSpeed="11.180000"/>
	<vehicle id="L_219" type="car8" route="route4_1" depart="98" departLane = "0" departSpeed="11.180000"/>
	<vehicle id="L_220" type="car6" route="route3_4" depart="99" departLane = "2" departSpeed="11.180000"/>
	<vehicle id="L_221" type="car8" route="route3_4" depart="100" departLane = "1" departSpeed="11.180000"/>
	<vehicle id="R_222" type="car8" route="route4_3" depart="100" departLane = "0" departSpeed="11.180000"/>
	<vehicle id="L_223" type="car9" route="route2_3" depart="101" departLane = "0" departSpeed="11.180000"/>
	<vehicle id="S_224" type="car9" route="route1_3" depart="102" departLane = "2" departSpeed="11.180000"/>
	<vehicle id="S_225" type="car8" route="route3_1" depart="102" departLane = "0" departSpeed="11.180000"/>
	<vehicle id="L_226" type="car6" route="route4_1" depart="102" departLane = "1" departSpeed="11.180000"/>
	<vehicle id="S_227" type="car9" route="route2_4" depart="103" departLane = "0" departSpeed="11.180000"/>
	<vehicle id="L_228" type="car9" route="route1_2" depart="104" departLane = "2" departSpeed="11.180000"/>
	<vehicle id="S_229" type="car9" route="route2_4" depart="104" departLane = "1" departSpeed="11.180000"/>
	<vehicle id="R_230" type="car7" route="route3_2" depart="104" departLane = "0" departSpeed="11.180000"/>
	<vehicle id="L_231" type="car8" route="route1_2" depart="105" departLane = "2" departSpeed="11.180000"/>
	<vehicle id="S_232" type="car6" route="route1_3" depart="106" departLane = "2" departSpeed="11.180000"/>
	<vehicle id="S_233" type="car7" route="route2_4" depart="106" departLane = "2" departSpeed="11.180000"/>
	<vehicle id="L_234" type="car8" route="route3_4" depart="106" departLane = "0" departSpeed="11.180000"/>
	<vehicle id="L_235" type="car5" route="route4_1" depart="106" departLane = "1" departSpeed="11.180000"/>
	<vehicle id="L_236" type="car7" route="route1_2" depart="107" departLane = "0" departSpeed="11.180000"/>
	<vehicle id="R_237" type="car6" route="route3_2" depart="108" departLane = "1" departSpeed="11.180000"/>
	<vehicle id="R_238" type="car5" route="route2_1" depart="109" departLane = "1" departSpeed="11.180000"/>
	<vehicle id="L_239" type="car7" route="route3_4" depart="109" departLane = "0" departSpeed="11.180000"/>
	<vehicle id="R_240" type="car5" route="route1_4" depart="110" departLane = "0" departSpeed="11.180000"/>
	<vehicle id="L_241" type="car6" route="route2_3" depart="110" departLane = "1" departSpeed="11.180000"/>
	<vehicle id="R_242" type="car8" route="route3_2" depart="110" departLane = "0" departSpeed="11.180000"/>
	<vehicle id="S_243" type="car6" route="route4_2" depart="110" departLane = "1" departSpeed="11.180000"/>
	<vehicle id="L_244" type="car5" route="route3_4" depart="111" departLane = "1" departSpeed="11.180000"/>
	<vehicle id="R_245" type="car6" route="route4_3" depart="111" departLane = "2" departSpeed="11.180000"/>
	<vehicle id="R_246" type="car9" route="route2_1" depart="112" departLane = "2" departSpeed="11.180000"/>
	<vehicle id="S_247" type="car6" route="route3_1" depart="112" departLane = "0" departSpeed="11.180000"/>
	<vehicle id="S_248" type="car8" route="route4_2" depart="112" departLane = "0" departSpeed="11.180000"/>
	<vehicle id="R_249" type="car9" route="route1_4" depart="114" departLane = "0" departSpeed="11.180000"/>
	<vehicle id="L_250" type="car6" route="route3_4" depart="114" departLane = "2" departSpeed="11.180000"/>
	<vehicle id="L_251" type="car7" route="route3_4" depart="115" departLane = "0" departSpeed="11.180000"/>
	<vehicle id="S_252" type="car8" route="route2_4" depart="116" departLane = "0" departSpeed="11.180000"/>
	<vehicle id="R_253" type="car6" route="route3_2" depart="116" departLane = "1" departSpeed="11.180000"/>
	<vehicle id="R_254" type="car7" route="route2_1" depart="117" departLane = "1" departSpeed="11.180000"/>
	<vehicle id="R_255" type="car7" route="route4_3" depart="117" departLane = "0" departSpeed="11.180000"/>
	<vehicle id="R_256" type="car9" route="route1_4" depart="118" departLane = "2" departSpeed="11.180000"/>
	<vehicle id="R_257" type="car5" route="route2_1" depart="118" departLane = "1" departSpeed="11.180000"/>
	<vehicle id="R_258" type="car6" route="route3_2" depart="118" departLane = "1" departSpeed="11.180000"/>
	<vehicle id="S_259" type="car8" route="route4_2" depart="118" departLane = "2" departSpeed="11.180000"/>
	<vehicle id="S_260" type="car9" route="route1_3" depart="119" departLane = "2" departSpeed="11.180000"/>
	<vehicle id="R_261" type="car9" route="route2_1" depart="119" departLane = "2" departSpeed="11.180000"/>
	<vehicle id="L_262" type="car8" route="route3_4" depart="119" departLane = "0" departSpeed="11.180000"/>
	<vehicle id="R_263" type="car5" route="route1_4" depart="120" departLane = "2" departSpeed="11.180000"/>
	<vehicle id="R_264" type="car8" route="route2_1" depart="120" departLane = "2" departSpeed="11.180000"/>
	<vehicle id="L_265" type="car5" route="route1_2" depart="121" departLane = "1" departSpeed="11.180000"/>
	<vehicle id="R_266" type="car9" route="route2_1" depart="121" departLane = "2" departSpeed="11.180000"/>
	<vehicle id="S_267" type="car5" route="route1_3" depart="122" departLane = "0" departSpeed="11.180000"/>
	<vehicle id="S_268" type="car5" route="route2_4" depart="122" departLane = "0" departSpeed="11.180000"/>
	<vehicle id="R_269" type="car7" route="route4_3" depart="122" departLane = "1" departSpeed="11.180000"/>
	<vehicle id="L_270" type="car8" route="route3_4" depart="123" departLane = "0" departSpeed="11.180000"/>
	<vehicle id="S_271" type="car6" route="route4_2" depart="123" departLane = "0" departSpeed="11.180000"/>
	<vehicle id="S_272" type="car5" route="route1_3" depart="124" departLane = "0" departSpeed="11.180000"/>