<routes>

	<vType id="car5" accel="100.0" decel="100.0" sigma="0.0" length="5" minGap="3.000000" maxSpeed="11.180000" tau="0.100000" carFollowModel="CACC" color="255,255,255"/>
	<vType id="car6" accel="100.0" decel="100.0" sigma="0.0" length="6" minGap="3.000000" maxSpeed="11.180000" tau="0.100000" carFollowModel="CACC" color="255,255,255"/>
	<vType id="car7" accel="100.0" decel="100.0" sigma="0.0" length="7" minGap="3.000000" maxSpeed="11.180000" tau="0.100000" carFollowModel="CACC" color="255,255,255"/>
	<vType id="car8" accel="100.0" decel="100.0" sigma="0.0" length="8" minGap="3.000000" maxSpeed="11.180000" tau="0.100000" carFollowModel="CACC" color="255,255,255"/>
	<vType id="car9" accel="100.0" decel="100.0" sigma="0.0" length="9" minGap="3.000000" maxSpeed="11.180000" tau="0.100000" carFollowModel="CACC" color="255,255,255"/>

	<route id="route1_2" edges=" 1 11 44 33 -2"/>
	<route id="route1_3" edges=" 1 11 44 -3"/>
	<route id="route1_4" edges=" 1 11 -4"/>
	<route id="route2_1" edges=" 2 22 -1"/>
	<route id="route2_3" edges=" 2 22 11 44 -3"/>
	<route id="route2_4" edges=" 2 22 11 -4"/>
	<route id="route3_1" edges=" 3 33 22 -1"/>
	<route id="route3_2" edges=" 3 33 -2"/>
	<route id="route3_4" edges=" 3 33 22 11 -4"/>
	<route id="route4_1" edges=" 4 44 33 22 -1"/>
	<route id="route4_2" edges=" 4 44 33 -2"/>
	<route id="route4_3" edges=" 4 44 -3"/>

	<vehicle id="S_0" type="car8" route="route4_2" depart="8" departLane = "2" departSpeed="11.180000"/>
	<vehicle id="R_1" type="car6" route="route1_4" depart="11" departLane = "2" departSpeed="11.180000"/>
	<vehicle id="S_2" type="car9" route="route2_4" depart="12" departLane = "1" departSpeed="11.180000"/>
	<vehicle id="S_3" type="car7" route="route2_4" depart="15" departLane = "1" departSpeed="11.180000"/>
	<vehicle id="S_4" type="car6" route="route2_4" depart="17" departLane = "0" departSpeed="11.180000"/>
	<vehicle id="S_5" type="car5" route="route2_4" depart="22" departLane = "2" departSpeed="11.180000"/>
	<vehicle id="S_6" type="car9" route="route4_2" depart="25" departLane = "2" departSpeed="11.180000"/>
	<vehicle id="R_7" type="car6" route="route2_1" depart="26" departLane = "0" departSpeed="11.180000"/>
	<vehicle id="R_8" type="car6" route="route4_3" depart="27" departLane = "0" departSpeed="11.180000"/>
	<vehicle id="S_9" type="car9" route="route3_1" depart="29" departLane = "1" departSpeed="11.180000"/>
	<vehicle id="R_10" type="car8" route="route3_2" depart="31" departLane = "0" departSpeed="11.180000"/>
	<vehicle id="S_11" type="car6" route="route4_2" depart="33" departLane = "2" departSpeed="11.180000"/>
	<vehicle id="S_12" type="car5" route="route4_2" depart="37" departLane = "2" departSpeed="11.180000"/>
	<vehicle id="R_13" type="car6" route="route2_1" depart="38" departLane = "1" departSpeed="11.180000"/>
	<vehicle id="L_14" type="car7" route="route3_4" depart="41" departLane = "0" departSpeed="11.180000"/>
	<vehicle id="L_15" type="car9" route="route2_3" depart="43" departLane = "2" departSpeed="11.180000"/>
	<vehicle id="L_16" type="car5" route="route1_2" depart="44" departLane = "1" departSpeed="11.180000"/>
	<vehicle id="R_17" type="car6" route="route2_1" depart="48" departLane = "2" departSpeed="11.180000"/>
	<vehicle id="R_18" type="car9" route="route1_4" depart="50" departLane = "2" departSpeed="11.180000"/>
	<vehicle id="R_19" type="car5" route="route4_3" depart="52" departLane = "1" departSpeed="11.180000"/>
	<vehicle id="R_20" type="car6" route="route4_3" depart="54" departLane = "0" departSpeed="11.180000"/>
	<vehicle id="R_21" type="car9" route="route2_1" depart="56" departLane = "2" departSpeed="11.180000"/>
	<vehicle id="S_22" type="car7" route="route3_1" depart="58" departLane = "0" departSpeed="11.180000"/>
	<vehicle id="R_23" type="car6" route="route1_4" depart="60" departLane = "0" departSpeed="11.180000"/>
	<vehicle id="L_24" type="car9" route="route1_2" depart="62" departLane = "0" departSpeed="11.180000"/>
	<vehicle id="S_25" type="car6" route="route3_1" depart="65" departLane = "1" departSpeed="11.180000"/>
	<vehicle id="L_26" type="car6" route="route1_2" depart="67" departLane = "0" departSpeed="11.180000"/>
	<vehicle id="R_27" type="car5" route="route3_2" depart="67" departLane = "0" departSpeed="11.180000"/>
	<vehicle id="S_28" type="car5" route="route1_3" depart="71" departLane = "2" departSpeed="11.180000"/>
	<vehicle id="S_29" type="car9" route="route4_2" depart="72" departLane = "0" departSpeed="11.180000"/>
	<vehicle id="L_30" type="car7" route="route1_2" depart="79" departLane = "0" departSpeed="11.180000"/>
	<vehicle id="R_31" type="car5" route="route3_2" depart="81" departLane = "0" departSpeed="11.180000"/>
	<vehicle id="S_32" type="car9" route="route2_4" depart="84" departLane = "0" departSpeed="11.180000"/>
	<vehicle id="S_33" type="car7" route="route2_4" depart="88" departLane = "0" departSpeed="11.180000"/>
	<vehicle id="L_34" type="car7" route="route1_2" depart="89" departLane = "1" departSpeed="11.180000"/>
	<vehicle id="S_35" type="car6" route="route3_1" depart="92" departLane = "2" departSpeed="11.180000"/>
	<vehicle id="S_36" type="car8" route="route2_4" depart="93" departLane = "1" departSpeed="11.180000"/>
	<vehicle id="S_37" type="car9" route="route2_4" depart="94" departLane = "2" departSpeed="11.180000"/>
	<vehicle id="R_38" type="car8" route="route3_2" depart="96" departLane = "2" departSpeed="11.180000"/>
	<vehicle id="R_39" type="car8" route="route4_3" depart="100" departLane = "1" departSpeed="11.180000"/>
	<vehicle id="S_40" type="car5" route="route3_1" depart="102" departLane = "1" departSpeed="11.180000"/>
	<vehicle id="S_41" type="car9" route="route4_2" depart="103" departLane = "2" departSpeed="11.180000"/>
	<vehicle id="R_42" type="car5" route="route2_1" depart="106" departLane = "0" departSpeed="11.180000"/>
	<vehicle id="L_43" type="car5" route="route4_1" depart="110" departLane = "2" departSpeed="11.180000"/>
	<vehicle id="R_44" type="car7" route="route3_2" depart="113" departLane = "0" departSpeed="11.180000"/>
	<vehicle id="R_45" type="car9" route="route3_2" depart="115" departLane = "2" departSpeed="11.180000"/>
	<vehicle id="L_46" type="car7" route="route2_3" depart="122" departLane = "2" departSpeed="11.180000"/>
	<vehicle id="L_47" type="car5" route="route2_3" depart="123" departLane = "0" departSpeed="11.180000"/>
	<vehicle id="L_48" type="car8" route="route3_4" depart="127" departLane = "2" departSpeed="11.180000"/>
	<vehicle id="S_49" type="car5" route="route1_3" depart="128" departLane = "1" departSpeed="11.180000"/>
	<vehicle id="S_50" type="car8" route="route4_2" depart="131" departLane = "1" departSpeed="11.180000"/>
	<vehicle id="S_51" type="car7" route="route2_4" depart="134" departLane = "1" departSpeed="11.180000"/>
	<vehicle id="R_52" type="car7" route="route4_3" depart="135" departLane = "1" departSpeed="11.180000"/>
	<vehicle id="L_53" type="car6" route="route2_3" depart="142" departLane = "1" departSpeed="11.180000"/>
	<vehicle id="L_54" type="car6" route="route4_1" depart="142" departLane = "2" departSpeed="11.180000"/>
	<vehicle id="L_55" type="car8" route="route1_2" depart="143" departLane = "1" departSpeed="11.180000"/>
	<vehicle id="S_56" type="car5" route="route3_1" depart="143" departLane = "2" departSpeed="11.180000"/>
	<vehicle id="L_57" type="car8" route="route1_2" depart="144" departLane = "2" departSpeed="11.180000"/>
	<vehicle id="S_58" type="car5" route="route2_4" depart="144" departLane = "0" departSpeed="11.180000"/>
	<vehicle id="L_59" type="car5" route="route4_1" depart="151" departLane = "1" departSpeed="11.180000"/>
	<vehicle id="L_60" type="car7" route="route2_3" depart="152" departLane = "0" departSpeed="11.180000"/>
	<vehicle id="L_61" type="car6" route="route3_4" depart="152" departLane = "2" departSpeed="11.180000"/>
	<vehicle id="S_62" type="car7" route="route2_4" depart="153" departLane = "2" departSpeed="11.180000"/>
	<vehicle id="L_63" type="car9" route="route2_3" depart="154" departLane = "2" departSpeed="11.180000"/>
	<vehicle id="L_64" type="car6" route="route4_1" depart="156" departLane = "0" departSpeed="11.180000"/>
	<vehicle id="S_65" type="car8" route="route3_1" depart="157" departLane = "0" departSpeed="11.180000"/>
	<vehicle id="R_66" type="car6" route="route4_3" depart="160" departLane = "0" departSpeed="11.180000"/>
	<vehicle id="L_67" type="car5" route="route1_2" depart="164" departLane = "2" departSpeed="11.180000"/>
	<vehicle id="R_68" type="car8" route="route2_1" depart="164" departLane = "1" departSpeed="11.180000"/>
	<vehicle id="L_69" type="car8" route="route3_4" depart="164" departLane = "1" departSpeed="11.180000"/>
	<vehicle id="R_70" type="car6" route="route2_1" depart="165" departLane = "0" departSpeed="11.180000"/>
	<vehicle id="S_71" type="car9" route="route2_4" depart="166" departLane = "1" departSpeed="11.180000"/>
	<vehicle id="R_72" type="car6" route="route1_4" depart="167" departLane = "0" departSpeed="11.180000"/>
	<vehicle id="S_73" type="car8" route="route4_2" depart="171" departLane = "2" departSpeed="11.180000"/>
	<vehicle id="R_74" type="car8" route="route1_4" depart="179" departLane = "0" departSpeed="11.180000"/>
	<vehicle id="L_75" type="car7" route="route4_1" depart="183" departLane = "2" departSpeed="11.180000"/>
	<vehicle id="L_76" type="car9" route="route3_4" depart="186" departLane = "0" departSpeed="11.180000"/>
	<vehicle id="L_77" type="car9" route="route3_4" depart="190" departLane = "2" departSpeed="11.180000"/>
	<vehicle id="L_78" type="car6" route="route4_1" depart="190" departLane = "2" departSpeed="11.180000"/>
	<vehicle id="L_79" type="car5" route="route3_4" depart="191" departLane = "0" departSpeed="11.180000"/>
	<vehicle id="L_80" type="car7" route="route4_1" depart="191" departLane = "2" departSpeed="11.180000"/>
	<vehicle id="S_81" type="car7" route="route1_3" depart="192" departLane = "0" departSpeed="11.180000"/>
	<vehicle id="L_82" type="car8" route="route3_4" depart="196" departLane = "0" departSpeed="11.180000"/>
	<vehicle id="R_83" type="car6" route="route3_2" depart="198" departLane = "0" departSpeed="11.180000"/>
	<vehicle id="S_84" type="car9" route="route1_3" depart="199" departLane = "0" departSpeed="11.180000"/>
	<vehicle id="L_85" type="car5" route="route3_4" depart="199" departLane = "2" departSpeed="11.180000"/>
	<vehicle id="S_86" type="car8" route="route3_1" depart="201" departLane = "0" departSpeed="11.180000"/>
	<vehicle id="L_87" type="car6" route="route4_1" depart="201" departLane = "1" departSpeed="11.180000"/>
	<vehicle id="S_88" type="car7" route="route4_2" depart="203" departLane = "2" departSpeed="11.180000"/>
	<vehicle id="R_89" type="car5" route="route3_2" depart="206" departLane = "2" departSpeed="11.180000"/>
	<vehicle id="L_90" type="car7" route="route1_2" depart="213" departLane = "0" departSpeed="11.180000"/>
	<vehicle id="R_91" type="car9" route="route4_3" depart="214" departLane = "0" departSpeed="11.180000"/>
	<vehicle id="L_92" type="car7" route="route1_2" depart="215" departLane = "0" departSpeed="11.180000"/>
	<vehicle id="R_93" type="car6" route="route3_2" depart="226" departLane = "2" departSpeed="11.180000"/>
	<vehicle id="L_94" type="car6" route="route2_3" depart="229" departLane = "1" departSpeed="11.180000"/>
	<vehicle id="L_95" type="car8" route="route2_3" depart="233" departLane = "0" departSpeed="11.180000"/>
	<vehicle id="S_96" type="car6" route="route3_1" depart="233" departLane = "1" departSpeed="11.180000"/>
	<vehicle id="L_97" type="car7" route="route2_3" depart="235" departLane = "1" departSpeed="11.180000"/>
	<vehicle id="R_98" type="car9" route="route3_2" depart="236" departLane = "1" departSpeed="11.180000"/>
	<vehicle id="L_99" type="car7" route="route1_2" depart="237" departLane = "1" departSpeed="11.180000"/>
	<vehicle id="R_100" type="car5" route="route2_1" depart="237" departLane = "0" departSpeed="11.180000"/>
	<vehicle id="L_101" type="car6" route="route4_1" depart="238" departLane = "1" departSpeed="11.180000"/>
	<vehicle id="R_102" type="car6" route="route4_3" depart="240" departLane = "0" departSpeed="11.180000"/>
	<vehicle id="R_103" type="car7" route="route2_1" depart="244" departLane = "0" departSpeed="11.180000"/>
	<vehicle id="L_104" type="car6" route="route1_2" depart="247" departLane = "2" departSpeed="11.180000"/>
	<vehicle id="S_105" type="car5" route="route3_1" depart="247" departLane = "1" departSpeed="11.180000"/>
	<vehicle id="S_106" type="car9" route="route1_3" depart="250" departLane = "0" departSpeed="11.180000"/>
	<vehicle id="S_107" type="car9" route="route4_2" depart="250" departLane = "1" departSpeed="11.180000"/>
	<vehicle id="L_108" type="car6" route="route1_2" depart="253" departLane = "2" departSpeed="11.180000"/>
	<vehicle id="R_109" type="car6" route="route2_1" depart="253" departLane = "2" departSpeed="11.180000"/>
	<vehicle id="S_110" type="car5" route="route3_1" depart="253" departLane = "2" departSpeed="11.180000"/>
	<vehicle id="R_111" type="car5" route="route4_3" depart="258" departLane = "0" departSpeed="11.180000"/>
	<vehicle id="R_112" type="car6" route="route1_4" depart="259" departLane = "0" departSpeed="11.180000"/>
	<vehicle id="L_113" type="car5" route="route3_4" depart="262" departLane = "2" departSpeed="11.180000"/>
	<vehicle id="R_114" type="car5" route="route1_4" depart="263" departLane = "1" departSpeed="11.180000"/>
	<vehicle id="S_115" type="car7" route="route3_1" depart="263" departLane = "2" departSpeed="11.180000"/>
	<vehicle id="R_116" type="car6" route="route1_4" depart="264" departLane = "1" departSpeed="11.180000"/>
	<vehicle id="S_117" type="car8" route="route3_1" depart="266" departLane = "2" departSpeed="11.180000"/>
	<vehicle id="R_118" type="car7" route="route4_3" depart="266" departLane = "0" departSpeed="11.180000"/>
	<vehicle id="R_119" type="car9" route="route4_3" depart="270" departLane = "1" departSpeed="11.180000"/>
	<vehicle id="R_120" type="car5" route="route1_4" depart="271" departLane = "0" departSpeed="11.180000"/>
	<vehicle id="S_121" type="car6" route="route2_4" depart="275" departLane = "1" departSpeed="11.180000"/>
	<vehicle id="R_122" type="car8" route="route1_4" depart="278" departLane = "2" departSpeed="11.180000"/>
	<vehicle id="S_123" type="car6" route="route3_1" depart="285" departLane = "1" departSpeed="11.180000"/>
	<vehicle id="S_124" type="car8" route="route3_1" depart="286" departLane = "2" departSpeed="11.180000"/>
	<vehicle id="S_125" type="car7" route="route4_2" depart="286" departLane = "1" departSpeed="11.180000"/>
	<vehicle id="L_126" type="car8" route="route2_3" depart="288" departLane = "2" departSpeed="11.180000"/>
	<vehicle id="L_127" type="car9" route="route2_3" depart="289" departLane = "1" departSpeed="11.180000"/>
	<vehicle id="S_128" type="car8" route="route3_1" depart="290" departLane = "0" departSpeed="11.180000"/>
	<vehicle id="L_129" type="car9" route="route1_2" depart="298" departLane = "2" departSpeed="11.180000"/>
	<vehicle id="S_130" type="car5" route="route3_1" depart="300" departLane = "0" departSpeed="11.180000"/>
	<vehicle id="S_131" type="car6" route="route4_2" depart="304" departLane = "2" departSpeed="11.180000"/>
	<vehicle id="L_132" type="car8" route="route3_4" depart="306" departLane = "0" departSpeed="11.180000"/>
	<vehicle id="L_133" type="car5" route="route2_3" depart="307" departLane = "1" departSpeed="11.180000"/>
	<vehicle id="S_134" type="car5" route="route3_1" depart="308" departLane = "2" departSpeed="11.180000"/>
	<vehicle id="S_135" type="car6" route="route3_1" depart="312" departLane = "1" departSpeed="11.180000"/>
	<vehicle id="S_136" type="car5" route="route3_1" depart="313" departLane = "2" departSpeed="11.180000"/>
	<vehicle id="S_137" type="car9" route="route3_1" depart="314" departLane = "1" departSpeed="11.180000"/>
	<vehicle id="S_138" type="car9" route="route1_3" depart="318" departLane = "1" departSpeed="11.180000"/>
	<vehicle id="S_139" type="car9" route="route3_1" depart="318" departLane = "1" departSpeed="11.180000"/>
	<vehicle id="R_140" type="car7" route="route2_1" depart="330" departLane = "1" departSpeed="11.180000"/>
	<vehicle id="S_141" type="car8" route="route3_1" depart="331" departLane = "0" departSpeed="11.180000"/>
	<vehicle id="S_142" type="car7" route="route4_2" depart="331" departLane = "0" departSpeed="11.180000"/>
	<vehicle id="R_143" type="car5" route="route4_3" depart="332" departLane = "0" departSpeed="11.180000"/>
	<vehicle id="R_144" type="car9" route="route2_1" depart="333" departLane = "0" departSpeed="11.180000"/>
	<vehicle id="R_145" type="car6" route="route1_4" depart="334" departLane = "1" departSpeed="11.180000"/>
	<vehicle id="L_146" type="car8" route="route3_4" depart="336" departLane = "0" departSpeed="11.180000"/>
	<vehicle id="R_147" type="car5" route="route1_4" depart="337" departLane = "1" departSpeed="11.180000"/>
	<vehicle id="R_148" type="car5" route="route4_3" depart="338" departLane = "0" departSpeed="11.180000"/>
	<vehicle id="R_149" type="car5" route="route3_2" depart="345" departLane = "2" departSpeed="11.180000"/>
	<vehicle id="L_150" type="car5" route="route2_3" depart="350" departLane = "1" departSpeed="11.180000"/>
	<vehicle id="R_151" type="car9" route="route3_2" depart="352" departLane = "1" departSpeed="11.180000"/>
	<vehicle id="L_152" type="car9" route="route4_1" depart="355" departLane = "1" departSpeed="11.180000"/>
	<vehicle id="S_153" type="car6" route="route4_2" depart="356" departLane = "0" departSpeed="11.180000"/>
	<vehicle id="L_154" type="car5" route="route2_3" depart="364" departLane = "0" departSpeed="11.180000"/>
	<vehicle id="R_155" type="car6" route="route4_3" depart="365" departLane = "2" departSpeed="11.180000"/>
	<vehicle id="R_156" type="car8" route="route1_4" depart="367" departLane = "2" departSpeed="11.180000"/>
	<vehicle id="S_157" type="car6" route="route2_4" depart="368" departLane = "0" departSpeed="11.180000"/>
	<vehicle id="S_158" type="car9" route="route3_1" depart="372" departLane = "1" departSpeed="11.180000"/>
	<vehicle id="L_159" type="car8" route="route1_2" depart="373" departLane = "2" departSpeed="11.180000"/>
	<vehicle id="R_160" type="car8" route="route2_1" depart="375" departLane = "2" departSpeed="11.180000"/>
	<vehicle id="S_161" type="car9" route="route4_2" depart="377" departLane = "2" departSpeed="11.180000"/>
	<vehicle id="R_162" type="car5" route="route1_4" depart="378" departLane = "1" departSpeed="11.180000"/>
	<vehicle id="R_163" type="car8" route="route2_1" depart="379" departLane = "2" departSpeed="11.180000"/>
	<vehicle id="R_164" type="car6" route="route3_2" depart="380" departLane = "2" departSpeed="11.180000"/>
	<vehicle id="R_165" type="car7" route="route4_3" depart="386" departLane = "1" departSpeed="11.180000"/>
	<vehicle id="L_166" type="car7" route="route4_1" depart="387" departLane = "0" departSpeed="11.180000"/>
	<vehicle id="S_167" type="car9" route="route3_1" depart="389" departLane = "2" departSpeed="11.180000"/>
	<vehicle id="R_168" type="car7" route="route1_4" depart="392" departLane = "0" departSpeed="11.180000"/>
	<vehicle id="L_169" type="car7" route="route2_3" depart="392" departLane = "2" departSpeed="11.180000"/>
	<vehicle id="S_170" type="car6" route="route2_4" depart="393" departLane = "2" departSpeed="11.180000"/>
	<vehicle id="L_171" type="car9" route="route2_3" depart="399" departLane = "1" departSpeed="11.180000"/>
	<vehicle id="L_172" type="car6" route="route4_1" depart="407" departLane = "1" departSpeed="11.180000"/>
	<vehicle id="L_173" type="car8" route="route1_2" depart="408" departLane = "0" departSpeed="11.180000"/>
	<vehicle id="R_174" type="car5" route="route3_2" depart="409" departLane = "0" departSpeed="11.180000"/>
	<vehicle id="L_175" type="car6" route="route4_1" depart="409" departLane = "2" departSpeed="11.180000"/>
	<vehicle id="S_176" type="car9" route="route4_2" depart="412" departLane = "0" departSpeed="11.180000"/>
	<vehicle id="R_177" type="car6" route="route1_4" depart="417" departLane = "2" departSpeed="11.180000"/>
	<vehicle id="R_178" type="car5" route="route2_1" depart="426" departLane = "2" departSpeed="11.180000"/>
	<vehicle id="L_179" type="car7" route="route4_1" depart="429" departLane = "0" departSpeed="11.180000"/>
	<vehicle id="L_180" type="car5" route="route2_3" depart="431" departLane = "1" departSpeed="11.180000"/>
	<vehicle id="S_181" type="car7" route="route1_3" depart="432" departLane = "2" departSpeed="11.180000"/>
	<vehicle id="S_182" type="car5" route="route3_1" depart="435" departLane = "2" departSpeed="11.180000"/>
	<vehicle id="L_183" type="car7" route="route3_4" depart="436" departLane = "1" departSpeed="11.180000"/>
	<vehicle id="R_184" type="car7" route="route4_3" depart="437" departLane = "0" departSpeed="11.180000"/>
	<vehicle id="S_185" type="car5" route="route4_2" depart="439" departLane = "0" departSpeed="11.180000"/>
	<vehicle id="S_186" type="car5" route="route1_3" depart="446" departLane = "2" departSpeed="11.180000"/>
	<vehicle id="S_187" type="car6" route="route4_2" depart="447" departLane = "2" departSpeed="11.180000"/>
	<vehicle id="R_188" type="car9" route="route1_4" depart="448" departLane = "1" departSpeed="11.180000"/>
	<vehicle id="L_189" type="car6" route="route3_4" depart="449" departLane = "1" departSpeed="11.180000"/>
	<vehicle id="S_190" type="car9" route="route2_4" depart="451" departLane = "1" departSpeed="11.180000"/>
	<vehicle id="L_191" type="car5" route="route1_2" depart="454" departLane = "2" departSpeed="11.180000"/>
	<vehicle id="L_192" type="car6" route="route4_1" depart="456" departLane = "1" departSpeed="11.180000"/>
	<vehicle id="R_193" type="car7" route="route3_2" depart="457" departLane = "0" departSpeed="11.180000"/>
	<vehicle id="R_194" type="car8" route="route4_3" depart="458" departLane = "1" departSpeed="11.180000"/>
	<vehicle id="S_195" type="car9" route="route4_2" depart="461" departLane = "2" departSpeed="11.180000"/>
	<vehicle id="L_196" type="car9" route="route2_3" depart="462" departLane = "1" departSpeed="11.180000"/>
	<vehicle id="L_197" type="car5" route="route2_3" depart="466" departLane = "2" departSpeed="11.180000"/>
	<vehicle id="L_198" type="car5" route="route3_4" depart="467" departLane = "2" departSpeed="11.180000"/>
	<vehicle id="S_199" type="car6" route="route2_4" depart="468" departLane = "1" departSpeed="11.180000"/>
	<vehicle id="L_200" type="car9" route="route3_4" depart="474" departLane = "1" departSpeed="11.180000"/>
	<vehicle id="R_201" type="car6" route="route3_2" depart="483" departLane = "1" departSpeed="11.180000"/>
	<vehicle id="S_202" type="car6" route="route1_3" depart="485" departLane = "0" departSpeed="11.180000"/>
	<vehicle id="L_203" type="car7" route="route1_2" depart="486" departLane = "2" departSpeed="11.180000"/>
	<vehicle id="L_204" type="car7" route="route3_4" depart="488" departLane = "0" departSpeed="11.180000"/>
	<vehicle id="L_205" type="car9" route="route3_4" depart="491" departLane = "0" departSpeed="11.180000"/>
	<vehicle id="R_206" type="car7" route="route2_1" depart="493" departLane = "0" departSpeed="11.180000"/>
	<vehicle id="S_207" type="car8" route="route3_1" depart="493" departLane = "2" departSpeed="11.180000"/>
	<vehicle id="S_208" type="car9" route="route1_3" depart="501" departLane = "2" departSpeed="11.180000"/>
	<vehicle id="R_209" type="car6" route="route2_1" depart="502" departLane = "0" departSpeed="11.180000"/>
	<vehicle id="R_210" type="car8" route="route2_1" depart="512" departLane = "1" departSpeed="11.180000"/>
	<vehicle id="L_211" type="car5" route="route3_4" depart="515" departLane = "1" departSpeed="11.180000"/>
	<vehicle id="S_212" type="car6" route="route3_1" depart="516" departLane = "0" departSpeed="11.180000"/>
	<vehicle id="L_213" type="car8" route="route4_1" depart="516" departLane = "1" departSpeed="11.180000"/>
	<vehicle id="L_214" type="car6" route="route1_2" depart="517" departLane = "2" departSpeed="11.180000"/>
	<vehicle id="R_215" type="car9" route="route4_3" depart="517" departLane = "0" departSpeed="11.180000"/>
	<vehicle id="L_216" type="car6" route="route4_1" depart="520" departLane = "1" departSpeed="11.180000"/>
	<vehicle id="S_217" type="car8" route="route2_4" depart="521" departLane = "0" departSpeed="11.180000"/>
	<vehicle id="S_218" type="car7" route="route4_2" depart="522" departLane = "1" departSpeed="11.180000"/>
	<vehicle id="R_219" type="car8" route="route3_2" depart="525" departLane = "0" departSpeed="11.180000"/>
	<vehicle id="S_220" type="car6" route="route2_4" depart="526" departLane = "1" departSpeed="11.180000"/>
	<vehicle id="R_221" type="car5" route="route2_1" depart="530" departLane = "1" departSpeed="11.180000"/>
	<vehicle id="L_222" type="car5" route="route1_2" depart="535" departLane = "1" departSpeed="11.180000"/>
	<vehicle id="R_223" type="car9" route="route4_3" depart="535" departLane = "2" departSpeed="11.180000"/>
	<vehicle id="L_224" type="car9" route="route1_2" depart="536" departLane = "1" departSpeed="11.180000"/>
	<vehicle id="R_225" type="car8" route="route1_4" depart="542" departLane = "2" departSpeed="11.180000"/>
	<vehicle id="R_226" type="car6" route="route1_4" depart="543" departLane = "0" departSpeed="11.180000"/>
	<vehicle id="L_227" type="car6" route="route3_4" depart="545" departLane = "2" departSpeed="11.180000"/>
	<vehicle id="R_228" type="car8" route="route4_3" depart="546" departLane = "1" departSpeed="11.180000"/>
	<vehicle id="R_229" type="car7" route="route1_4" depart="549" departLane = "2" departSpeed="11.180000"/>
	<vehicle id="L_230" type="car9" route="route2_3" depart="551" departLane = "1" departSpeed="11.180000"/>
	<vehicle id="L_231" type="car8" route="route1_2" depart="553" departLane = "0" departSpeed="11.180000"/>
	<vehicle id="S_232" type="car6" route="route1_3" depart="561" departLane = "1" departSpeed="11.180000"/>
	<vehicle id="L_233" type="car8" route="route2_3" depart="561" departLane = "2" departSpeed="11.180000"/>
	<vehicle id="L_234" type="car7" route="route2_3" depart="562" departLane = "0" departSpeed="11.180000"/>
	<vehicle id="S_235" type="car5" route="route4_2" depart="563" departLane = "0" departSpeed="11.180000"/>
	<vehicle id="S_236" type="car8" route="route1_3" depart="564" departLane = "1" departSpeed="11.180000"/>
	<vehicle id="S_237" type="car5" route="route1_3" depart="566" departLane = "0" departSpeed="11.180000"/>
	<vehicle id="L_238" type="car9" route="route3_4" depart="567" departLane = "2" departSpeed="11.180000"/>
	<vehicle id="S_239" type="car6" route="route1_3" depart="568" departLane = "0" departSpeed="11.180000"/>
	<vehicle id="R_240" type="car5" route="route2_1" depart="570" departLane = "0" departSpeed="11.180000"/>
	<vehicle id="L_241" type="car9" route="route2_3" depart="577" departLane = "1" departSpeed="11.180000"/>
	<vehicle id="S_242" type="car8" route="route2_4" depart="578" departLane = "0" departSpeed="11.180000"/>
	<vehicle id="L_243" type="car8" route="route2_3" depart="580" departLane = "1" departSpeed="11.180000"/>
	<vehicle id="R_244" type="car9" route="route2_1" depart="582" departLane = "2" departSpeed="11.180000"/>
	<vehicle id="S_245" type="car9" route="route1_3" depart="583" departLane = "0" departSpeed="11.180000"/>
	<vehicle id="S_246" type="car7" route="route1_3" depart="584" departLane = "2" departSpeed="11.180000"/>
	<vehicle id="L_247" type="car5" route="route4_1" depart="585" departLane = "0" departSpeed="11.180000"/>
	<vehicle id="L_248" type="car8" route="route1_2" depart="593" departLane = "1" departSpeed="11.180000"/>
	<vehicle id="S_249" type="car6" route="route2_4" depart="594" departLane = "1" departSpeed="11.180000"/>
	<vehicle id="S_250" type="car8" route="route3_1" depart="596" departLane = "2" departSpeed="11.180000"/>
	<vehicle id="R_251" type="car7" route="route1_4" depart="601" departLane = "2" departSpeed="11.180000"/>
	<vehicle id="R_252" type="car7" route="route1_4" depart="603" departLane = "0" departSpeed="11.180000"/>
	<vehicle id="R_253" type="car5" route="route2_1" depart="603" departLane = "1" departSpeed="11.180000"/>
	<vehicle id="R_254" type="car5" route="route3_2" depart="603" departLane = "2" departSpeed="11.180000"/>
	<vehicle id="L_255" type="car9" route="route1_2" depart="605" departLane = "2" departSpeed="11.180000"/>
	<vehicle id="S_256" type="car8" route="route2_4" depart="607" departLane = "1" departSpeed="11.180000"/>
	<vehicle id="S_257" type="car7" route="route3_1" depart="610" departLane = "1" departSpeed="11.180000"/>
	<vehicle id="R_258" type="car7" route="route2_1" depart="614" departLane = "0" departSpeed="11.180000"/>
	<vehicle id="L_259" type="car6" route="route3_4" depart="618" departLane = "1" departSpeed="11.180000"/>
	<vehicle id="L_260" type="car9" route="route2_3" depart="622" departLane = "1" departSpeed="11.180000"/>
	<vehicle id="L_261" type="car5" route="route2_3" depart="623" departLane = "1" departSpeed="11.180000"/>
	<vehicle id="L_262" type="car7" route="route1_2" depart="624" departLane = "2" departSpeed="11.180000"/>
	<vehicle id="R_263" type="car6" route="route3_2" depart="628" departLane = "2" departSpeed="11.180000"/>
	<vehicle id="R_264" type="car6" route="route1_4" depart="633" departLane = "1" departSpeed="11.180000"/>
	<vehicle id="R_265" type="car9" route="route4_3" depart="635" departLane = "0" departSpeed="11.180000"/>
	<vehicle id="L_266" type="car9" route="route3_4" depart="638" departLane = "0" departSpeed="11.180000"/>
	<vehicle id="S_267" type="car6" route="route4_2" depart="638" departLane = "2" departSpeed="11.180000"/>
	<vehicle id="L_268" type="car7" route="route1_2" depart="639" departLane = "0" departSpeed="11.180000"/>
	<vehicle id="S_269" type="car9" route="route2_4" depart="642" departLane = "2" departSpeed="11.180000"/>
	<vehicle id="R_270" type="car8" route="route4_3" depart="643" departLane = "0" departSpeed="11.180000"/>