<routes>

	<vType id="car5" accel="100.0" decel="100.0" sigma="0.0" length="5" minGap="3.000000" maxSpeed="11.180000" tau="0.100000" carFollowModel="CACC" color="255,255,255"/>
	<vType id="car6" accel="100.0" decel="100.0" sigma="0.0" length="6" minGap="3.000000" maxSpeed="11.180000" tau="0.100000" carFollowModel="CACC" color="255,255,255"/>
	<vType id="car7" accel="100.0" decel="100.0" sigma="0.0" length="7" minGap="3.000000" maxSpeed="11.180000" tau="0.100000" carFollowModel="CACC" color="255,255,255"/>
	<vType id="car8" accel="100.0" decel="100.0" sigma="0.0" length="8" minGap="3.000000" maxSpeed="11.180000" tau="0.100000" carFollowModel="CACC" color="255,255,255"/>
	<vType id="car9" accel="100.0" decel="100.0" sigma="0.0" length="9" minGap="3.000000" maxSpeed="11.180000" tau="0.100000" carFollowModel="CACC" color="255,255,255"/>

	<route id="route1_2" edges=" 1 -2"/>
	<route id="route1_3" edges=" 1 -3"/>
	<route id="route1_4" edges=" 1 -4"/>
	<route id="route2_1" edges=" 2 -1"/>
	<route id="route2_3" edges=" 2 -3"/>
	<route id="route2_4" edges=" 2 -4"/>
	<route id="route3_1" edges=" 3 -1"/>
	<route id="route3_2" edges=" 3 -2"/>
	<route id="route3_4" edges=" 3 -4"/>
	<route id="route4_1" edges=" 4 -1"/>
	<route id="route4_2" edges=" 4 -2"/>
	<route id="route4_3" edges=" 4 -3"/>

	<vehicle id="R_0" type="car5" route="route2_1" depart="0" departLane = "2" departSpeed="11.180000"/>
	<vehicle id="L_1" type="car8" route="route4_1" depart="0" departLane = "2" departSpeed="11.180000"/>
	<vehicle id="L_2" type="car8" route="route3_4" depart="1" departLane = "1" departSpeed="11.180000"/>
	<vehicle id="S_3" type="car6" route="route4_2" depart="1" departLane = "0" departSpeed="11.180000"/>
	<vehicle id="L_4" type="car9" route="route3_4" depart="2" departLane = "0" departSpeed="11.180000"/>
	<vehicle id="S_5" type="car7" route="route4_2" depart="2" departLane = "0" departSpeed="11.180000"/>
	<vehicle id="L_6" type="car7" route="route1_2" depart="3" departLane = "0" departSpeed="11.180000"/>
	<vehicle id="L_7" type="car9" route="route2_3" depart="3" departLane = "1" departSpeed="11.180000"/>
	<vehicle id="L_8" type="car9" route="route3_4" depart="3" departLane = "1" departSpeed="11.180000"/>
	<vehicle id="L_9" type="car5" route="route1_2" depart="4" departLane = "2" departSpeed="11.180000"/>
	<vehicle id="R_10" type="car9" route="route2_1" depart="4" departLane = "0" departSpeed="11.180000"/>
	<vehicle id="L_11" type="car6" route="route3_4" depart="4" departLane = "2" departSpeed="11.180000"/>
	<vehicle id="R_12" type="car5" route="route4_3" depart="4" departLane = "2" departSpeed="11.180000"/>
	<vehicle id="R_13" type="car7" route="route1_4" depart="5" departLane = "0" departSpeed="11.180000"/>
	<vehicle id="R_14" type="car7" route="route3_2" depart="5" departLane = "1" departSpeed="11.180000"/>
	<vehicle id="L_15" type="car6" route="route4_1" depart="5" departLane = "2" departSpeed="11.180000"/>
	<vehicle id="L_16" type="car9" route="route1_2" depart="6" departLane = "0" departSpeed="11.180000"/>
	<vehicle id="L_17" type="car6" route="route2_3" depart="6" departLane = "2" departSpeed="11.180000"/>
	<vehicle id="L_18" type="car9" route="route3_4" depart="6" departLane = "0" departSpeed="11.180000"/>
	<vehicle id="L_19" type="car5" route="route4_1" depart="6" departLane = "1" departSpeed="11.180000"/>
	<vehicle id="R_20" type="car9" route="route1_4" depart="7" departLane = "1" departSpeed="11.180000"/>
	<vehicle id="S_21" type="car5" route="route3_1" depart="7" departLane = "0" departSpeed="11.180000"/>
	<vehicle id="R_22" type="car7" route="route2_1" depart="8" departLane = "1" departSpeed="11.180000"/>
	<vehicle id="S_23" type="car9" route="route4_2" depart="8" departLane = "0" departSpeed="11.180000"/>
	<vehicle id="S_24" type="car8" route="route1_3" depart="9" departLane = "1" departSpeed="11.180000"/>
	<vehicle id="R_25" type="car6" route="route2_1" depart="9" departLane = "2" departSpeed="11.180000"/>
	<vehicle id="L_26" type="car6" route="route3_4" depart="9" departLane = "0" departSpeed="11.180000"/>
	<vehicle id="S_27" type="car6" route="route4_2" depart="9" departLane = "1" departSpeed="11.180000"/>
	<vehicle id="L_28" type="car7" route="route1_2" depart="10" departLane = "2" departSpeed="11.180000"/>
	<vehicle id="S_29" type="car9" route="route2_4" depart="10" departLane = "2" departSpeed="11.180000"/>
	<vehicle id="L_30" type="car6" route="route1_2" depart="11" departLane = "2" departSpeed="11.180000"/>
	<vehicle id="S_31" type="car5" route="route2_4" depart="11" departLane = "1" departSpeed="11.180000"/>
	<vehicle id="S_32" type="car6" route="route3_1" depart="11" departLane = "2" departSpeed="11.180000"/>
	<vehicle id="S_33" type="car6" route="route1_3" depart="12" departLane = "0" departSpeed="11.180000"/>
	<vehicle id="S_34" type="car6" route="route2_4" depart="12" departLane = "2" departSpeed="11.180000"/>
	<vehicle id="S_35" type="car9" route="route3_1" depart="12" departLane = "0" departSpeed="11.180000"/>
	<vehicle id="S_36" type="car9" route="route4_2" depart="12" departLane = "0" departSpeed="11.180000"/>
	<vehicle id="S_37" type="car9" route="route1_3" depart="13" departLane = "1" departSpeed="11.180000"/>
	<vehicle id="S_38" type="car6" route="route2_4" depart="13" departLane = "0" departSpeed="11.180000"/>
	<vehicle id="S_39" type="car7" route="route3_1" depart="13" departLane = "1" departSpeed="11.180000"/>
	<vehicle id="L_40" type="car5" route="route1_2" depart="14" departLane = "2" departSpeed="11.180000"/>
	<vehicle id="L_41" type="car8" route="route2_3" depart="14" departLane = "0" departSpeed="11.180000"/>
	<vehicle id="L_42" type="car7" route="route4_1" depart="14" departLane = "1" departSpeed="11.180000"/>
	<vehicle id="R_43" type="car6" route="route1_4" depart="15" departLane = "1" departSpeed="11.180000"/>
	<vehicle id="L_44" type="car5" route="route2_3" depart="15" departLane = "1" departSpeed="11.180000"/>
	<vehicle id="S_45" type="car5" route="route3_1" depart="15" departLane = "1" departSpeed="11.180000"/>
	<vehicle id="L_46" type="car6" route="route4_1" depart="15" departLane = "2" departSpeed="11.180000"/>
	<vehicle id="L_47" type="car6" route="route3_4" depart="16" departLane = "1" departSpeed="11.180000"/>
	<vehicle id="S_48" type="car9" route="route4_2" depart="16" departLane = "0" departSpeed="11.180000"/>
	<vehicle id="S_49" type="car8" route="route1_3" depart="17" departLane = "2" departSpeed="11.180000"/>
	<vehicle id="R_50" type="car8" route="route2_1" depart="17" departLane = "0" departSpeed="11.180000"/>
	<vehicle id="L_51" type="car8" route="route3_4" depart="17" departLane = "2" departSpeed="11.180000"/>
	<vehicle id="L_52" type="car9" route="route4_1" depart="17" departLane = "1" departSpeed="11.180000"/>
	<vehicle id="R_53" type="car9" route="route1_4" depart="18" departLane = "0" departSpeed="11.180000"/>
	<vehicle id="S_54" type="car7" route="route2_4" depart="18" departLane = "1" departSpeed="11.180000"/>
	<vehicle id="R_55" type="car7" route="route4_3" depart="18" departLane = "1" departSpeed="11.180000"/>
	<vehicle id="R_56" type="car7" route="route1_4" depart="19" departLane = "1" departSpeed="11.180000"/>
	<vehicle id="S_57" type="car7" route="route2_4" depart="19" departLane = "1" departSpeed="11.180000"/>
	<vehicle id="L_58" type="car5" route="route1_2" depart="20" departLane = "2" departSpeed="11.180000"/>
	<vehicle id="L_59" type="car5" route="route2_3" depart="20" departLane = "2" departSpeed="11.180000"/>
	<vehicle id="S_60" type="car8" route="route3_1" depart="20" departLane = "2" departSpeed="11.180000"/>
	<vehicle id="L_61" type="car7" route="route4_1" depart="20" departLane = "0" departSpeed="11.180000"/>
	<vehicle id="R_62" type="car6" route="route1_4" depart="21" departLane = "2" departSpeed="11.180000"/>
	<vehicle id="S_63" type="car8" route="route3_1" depart="21" departLane = "1" departSpeed="11.180000"/>
	<vehicle id="S_64" type="car7" route="route4_2" depart="21" departLane = "2" departSpeed="11.180000"/>
	<vehicle id="R_65" type="car7" route="route1_4" depart="22" departLane = "2" departSpeed="11.180000"/>
	<vehicle id="S_66" type="car6" route="route2_4" depart="22" departLane = "0" departSpeed="11.180000"/>
	<vehicle id="S_67" type="car8" route="route3_1" depart="22" departLane = "1" departSpeed="11.180000"/>
	<vehicle id="R_68" type="car6" route="route4_3" depart="22" departLane = "2" departSpeed="11.180000"/>
	<vehicle id="S_69" type="car9" route="route2_4" depart="23" departLane = "0" departSpeed="11.180000"/>
	<vehicle id="R_70" type="car8" route="route4_3" depart="23" departLane = "2" departSpeed="11.180000"/>
	<vehicle id="L_71" type="car9" route="route1_2" depart="24" departLane = "1" departSpeed="11.180000"/>
	<vehicle id="L_72" type="car6" route="route2_3" depart="24" departLane = "1" departSpeed="11.180000"/>
	<vehicle id="L_73" type="car9" route="route3_4" depart="24" departLane = "2" departSpeed="11.180000"/>
	<vehicle id="R_74" type="car6" route="route4_3" depart="24" departLane = "2" departSpeed="11.180000"/>
	<vehicle id="S_75" type="car9" route="route1_3" depart="25" departLane = "1" departSpeed="11.180000"/>
	<vehicle id="L_76" type="car8" route="route2_3" depart="25" departLane = "1" departSpeed="11.180000"/>
	<vehicle id="S_77" type="car9" route="route3_1" depart="25" departLane = "2" departSpeed="11.180000"/>
	<vehicle id="R_78" type="car6" route="route4_3" depart="25" departLane = "0" departSpeed="11.180000"/>
	<vehicle id="R_79" type="car5" route="route2_1" depart="26" departLane = "1" departSpeed="11.180000"/>
	<vehicle id="L_80" type="car8" route="route3_4" depart="26" departLane = "0" departSpeed="11.180000"/>
	<vehicle id="L_81" type="car5" route="route4_1" depart="26" departLane = "1" departSpeed="11.180000"/>
	<vehicle id="L_82" type="car6" route="route1_2" depart="27" departLane = "2" departSpeed="11.180000"/>
	<vehicle id="S_83" type="car7" route="route2_4" depart="27" departLane = "0" departSpeed="11.180000"/>
	<vehicle id="R_84" type="car9" route="route3_2" depart="27" departLane = "0" departSpeed="11.180000"/>
	<vehicle id="L_85" type="car8" route="route1_2" depart="28" departLane = "1" departSpeed="11.180000"/>
	<vehicle id="S_86" type="car8" route="route3_1" depart="28" departLane = "1" departSpeed="11.180000"/>
	<vehicle id="S_87" type="car8" route="route4_2" depart="28" departLane = "2" departSpeed="11.180000"/>
	<vehicle id="R_88" type="car6" route="route2_1" depart="29" departLane = "2" departSpeed="11.180000"/>
	<vehicle id="L_89" type="car7" route="route3_4" depart="29" departLane = "1" departSpeed="11.180000"/>
	<vehicle id="L_90" type="car6" route="route4_1" depart="29" departLane = "1" departSpeed="11.180000"/>
	<vehicle id="L_91" type="car9" route="route1_2" depart="30" departLane = "1" departSpeed="11.180000"/>
	<vehicle id="S_92" type="car9" route="route2_4" depart="30" departLane = "0" departSpeed="11.180000"/>
	<vehicle id="S_93" type="car5" route="route1_3" depart="31" departLane = "1" departSpeed="11.180000"/>
	<vehicle id="S_94" type="car8" route="route3_1" depart="31" departLane = "0" departSpeed="11.180000"/>
	<vehicle id="R_95" type="car8" route="route4_3" depart="31" departLane = "1" departSpeed="11.180000"/>
	<vehicle id="L_96" type="car6" route="route2_3" depart="32" departLane = "0" departSpeed="11.180000"/>
	<vehicle id="S_97" type="car6" route="route4_2" depart="32" departLane = "0" departSpeed="11.180000"/>
	<vehicle id="R_98" type="car5" route="route4_3" depart="33" departLane = "1" departSpeed="11.180000"/>
	<vehicle id="S_99" type="car7" route="route1_3" depart="34" departLane = "2" departSpeed="11.180000"/>
	<vehicle id="L_100" type="car7" route="route2_3" depart="34" departLane = "2" departSpeed="11.180000"/>
	<vehicle id="R_101" type="car8" route="route3_2" depart="34" departLane = "0" departSpeed="11.180000"/>
	<vehicle id="S_102" type="car5" route="route4_2" depart="35" departLane = "1" departSpeed="11.180000"/>
	<vehicle id="R_103" type="car9" route="route1_4" depart="36" departLane = "0" departSpeed="11.180000"/>
	<vehicle id="S_104" type="car8" route="route3_1" depart="36" departLane = "2" departSpeed="11.180000"/>
	<vehicle id="R_105" type="car5" route="route1_4" depart="37" departLane = "0" departSpeed="11.180000"/>
	<vehicle id="S_106" type="car8" route="route3_1" depart="37" departLane = "1" departSpeed="11.180000"/>
	<vehicle id="L_107" type="car8" route="route4_1" depart="37" departLane = "1" departSpeed="11.180000"/>
	<vehicle id="R_108" type="car8" route="route1_4" depart="38" departLane = "2" departSpeed="11.180000"/>
	<vehicle id="S_109" type="car8" route="route2_4" depart="38" departLane = "2" departSpeed="11.180000"/>
	<vehicle id="L_110" type="car9" route="route3_4" depart="38" departLane = "2" departSpeed="11.180000"/>
	<vehicle id="R_111" type="car5" route="route4_3" depart="38" departLane = "1" departSpeed="11.180000"/>
	<vehicle id="L_112" type="car7" route="route1_2" depart="39" departLane = "1" departSpeed="11.180000"/>
	<vehicle id="S_113" type="car8" route="route2_4" depart="39" departLane = "1" departSpeed="11.180000"/>
	<vehicle id="S_114" type="car8" route="route3_1" depart="39" departLane = "1" departSpeed="11.180000"/>
	<vehicle id="R_115" type="car6" route="route3_2" depart="40" departLane = "0" departSpeed="11.180000"/>
	<vehicle id="R_116" type="car6" route="route4_3" depart="40" departLane = "2" departSpeed="11.180000"/>
	<vehicle id="L_117" type="car7" route="route1_2" depart="41" departLane = "2" departSpeed="11.180000"/>
	<vehicle id="L_118" type="car5" route="route3_4" depart="41" departLane = "1" departSpeed="11.180000"/>
	<vehicle id="S_119" type="car7" route="route4_2" depart="41" departLane = "2" departSpeed="11.180000"/>
	<vehicle id="S_120" type="car8" route="route1_3" depart="42" departLane = "2" departSpeed="11.180000"/>
	<vehicle id="S_121" type="car6" route="route3_1" depart="42" departLane = "0" departSpeed="11.180000"/>
	<vehicle id="R_122" type="car5" route="route1_4" depart="43" departLane = "0" departSpeed="11.180000"/>
	<vehicle id="S_123" type="car6" route="route3_1" depart="43" departLane = "0" departSpeed="11.180000"/>
	<vehicle id="R_124" type="car8" route="route4_3" depart="43" departLane = "2" departSpeed="11.180000"/>
	<vehicle id="L_125" type="car5" route="route1_2" depart="44" departLane = "2" departSpeed="11.180000"/>
	<vehicle id="S_126" type="car8" route="route2_4" depart="44" departLane = "1" departSpeed="11.180000"/>
	<vehicle id="L_127" type="car9" route="route3_4" depart="44" departLane = "2" departSpeed="11.180000"/>
	<vehicle id="L_128" type="car7" route="route4_1" depart="44" departLane = "0" departSpeed="11.180000"/>
	<vehicle id="R_129" type="car7" route="route1_4" depart="45" departLane = "1" departSpeed="11.180000"/>
	<vehicle id="S_130" type="car9" route="route3_1" depart="45" departLane = "1" departSpeed="11.180000"/>
	<vehicle id="L_131" type="car7" route="route4_1" depart="45" departLane = "0" departSpeed="11.180000"/>
	<vehicle id="R_132" type="car6" route="route1_4" depart="46" departLane = "0" departSpeed="11.180000"/>
	<vehicle id="S_133" type="car5" route="route3_1" depart="46" departLane = "0" departSpeed="11.180000"/>
	<vehicle id="R_134" type="car7" route="route4_3" depart="46" departLane = "1" departSpeed="11.180000"/>
	<vehicle id="S_135" type="car7" route="route1_3" depart="47" departLane = "1" departSpeed="11.180000"/>
	<vehicle id="R_136" type="car6" route="route2_1" depart="47" departLane = "2" departSpeed="11.180000"/>
	<vehicle id="S_137" type="car9" route="route3_1" depart="47" departLane = "1" departSpeed="11.180000"/>
	<vehicle id="S_138" type="car6" route="route4_2" depart="47" departLane = "1" departSpeed="11.180000"/>
	<vehicle id="S_139" type="car5" route="route1_3" depart="48" departLane = "2" departSpeed="11.180000"/>
	<vehicle id="L_140" type="car6" route="route2_3" depart="48" departLane = "0" departSpeed="11.180000"/>
	<vehicle id="L_141" type="car9" route="route3_4" depart="48" departLane = "2" departSpeed="11.180000"/>
	<vehicle id="R_142" type="car8" route="route4_3" depart="48" departLane = "0" departSpeed="11.180000"/>
	<vehicle id="S_143" type="car5" route="route1_3" depart="49" departLane = "2" departSpeed="11.180000"/>
	<vehicle id="S_144" type="car9" route="route2_4" depart="49" departLane = "1" departSpeed="11.180000"/>
	<vehicle id="R_145" type="car5" route="route4_3" depart="49" departLane = "2" departSpeed="11.180000"/>
	<vehicle id="L_146" type="car5" route="route2_3" depart="50" departLane = "2" departSpeed="11.180000"/>
	<vehicle id="L_147" type="car9" route="route3_4" depart="50" departLane = "2" departSpeed="11.180000"/>
	<vehicle id="S_148" type="car5" route="route4_2" depart="50" departLane = "2" departSpeed="11.180000"/>
	<vehicle id="S_149" type="car9" route="route1_3" depart="51" departLane = "0" departSpeed="11.180000"/>
	<vehicle id="R_150" type="car9" route="route2_1" depart="51" departLane = "1" departSpeed="11.180000"/>
	<vehicle id="R_151" type="car9" route="route3_2" depart="51" departLane = "0" departSpeed="11.180000"/>
	<vehicle id="R_152" type="car8" route="route4_3" depart="51" departLane = "2" departSpeed="11.180000"/>
	<vehicle id="L_153" type="car5" route="route1_2" depart="52" departLane = "2" departSpeed="11.180000"/>
	<vehicle id="R_154" type="car9" route="route2_1" depart="52" departLane = "0" departSpeed="11.180000"/>
	<vehicle id="R_155" type="car7" route="route3_2" depart="52" departLane = "2" departSpeed="11.180000"/>
	<vehicle id="L_156" type="car8" route="route4_1" depart="52" departLane = "0" departSpeed="11.180000"/>
	<vehicle id="S_157" type="car5" route="route1_3" depart="53" departLane = "2" departSpeed="11.180000"/>
	<vehicle id="L_158" type="car6" route="route2_3" depart="53" departLane = "2" departSpeed="11.180000"/>
	<vehicle id="S_159" type="car5" route="route3_1" depart="53" departLane = "1" departSpeed="11.180000"/>
	<vehicle id="R_160" type="car6" route="route4_3" depart="53" departLane = "2" departSpeed="11.180000"/>
	<vehicle id="R_161" type="car5" route="route1_4" depart="54" departLane = "2" departSpeed="11.180000"/>
	<vehicle id="R_162" type="car6" route="route3_2" depart="54" departLane = "2" departSpeed="11.180000"/>
	<vehicle id="L_163" type="car5" route="route1_2" depart="55" departLane = "1" departSpeed="11.180000"/>
	<vehicle id="L_164" type="car8" route="route2_3" depart="55" departLane = "0" departSpeed="11.180000"/>
	<vehicle id="R_165" type="car5" route="route3_2" depart="55" departLane = "0" departSpeed="11.180000"/>
	<vehicle id="R_166" type="car6" route="route4_3" depart="55" departLane = "0" departSpeed="11.180000"/>
	<vehicle id="L_167" type="car8" route="route1_2" depart="56" departLane = "2" departSpeed="11.180000"/>
	<vehicle id="S_168" type="car6" route="route2_4" depart="56" departLane = "2" departSpeed="11.180000"/>
	<vehicle id="S_169" type="car7" route="route3_1" depart="56" departLane = "1" departSpeed="11.180000"/>
	<vehicle id="L_170" type="car5" route="route4_1" depart="56" departLane = "1" departSpeed="11.180000"/>
	<vehicle id="L_171" type="car7" route="route1_2" depart="57" departLane = "1" departSpeed="11.180000"/>
	<vehicle id="L_172" type="car5" route="route2_3" depart="57" departLane = "1" departSpeed="11.180000"/>
	<vehicle id="R_173" type="car8" route="route3_2" depart="57" departLane = "1" departSpeed="11.180000"/>
	<vehicle id="R_174" type="car7" route="route4_3" depart="57" departLane = "1" departSpeed="11.180000"/>
	<vehicle id="S_175" type="car8" route="route2_4" depart="58" departLane = "1" departSpeed="11.180000"/>
	<vehicle id="R_176" type="car6" route="route2_1" depart="59" departLane = "0" departSpeed="11.180000"/>
	<vehicle id="L_177" type="car7" route="route3_4" depart="59" departLane = "1" departSpeed="11.180000"/>
	<vehicle id="R_178" type="car6" route="route4_3" depart="59" departLane = "2" departSpeed="11.180000"/>
	<vehicle id="R_179" type="car8" route="route1_4" depart="60" departLane = "2" departSpeed="11.180000"/>
	<vehicle id="L_180" type="car8" route="route2_3" depart="60" departLane = "2" departSpeed="11.180000"/>
	<vehicle id="S_181" type="car5" route="route3_1" depart="60" departLane = "1" departSpeed="11.180000"/>
	<vehicle id="R_182" type="car6" route="route1_4" depart="61" departLane = "2" departSpeed="11.180000"/>
	<vehicle id="L_183" type="car8" route="route2_3" depart="61" departLane = "2" departSpeed="11.180000"/>
	<vehicle id="S_184" type="car6" route="route3_1" depart="61" departLane = "2" departSpeed="11.180000"/>
	<vehicle id="L_185" type="car9" route="route4_1" depart="61" departLane = "2" departSpeed="11.180000"/>
	<vehicle id="R_186" type="car6" route="route1_4" depart="62" departLane = "2" departSpeed="11.180000"/>
	<vehicle id="R_187" type="car5" route="route2_1" depart="62" departLane = "2" departSpeed="11.180000"/>
	<vehicle id="L_188" type="car5" route="route3_4" depart="62" departLane = "0" departSpeed="11.180000"/>
	<vehicle id="L_189" type="car9" route="route1_2" depart="63" departLane = "0" departSpeed="11.180000"/>
	<vehicle id="L_190" type="car9" route="route2_3" depart="63" departLane = "1" departSpeed="11.180000"/>
	<vehicle id="S_191" type="car8" route="route1_3" depart="64" departLane = "0" departSpeed="11.180000"/>
	<vehicle id="S_192" type="car8" route="route2_4" depart="64" departLane = "1" departSpeed="11.180000"/>
	<vehicle id="L_193" type="car6" route="route4_1" depart="64" departLane = "2" departSpeed="11.180000"/>
	<vehicle id="R_194" type="car8" route="route2_1" depart="65" departLane = "0" departSpeed="11.180000"/>
	<vehicle id="S_195" type="car5" route="route3_1" depart="65" departLane = "1" departSpeed="11.180000"/>
	<vehicle id="L_196" type="car7" route="route3_4" depart="66" departLane = "0" departSpeed="11.180000"/>
	<vehicle id="S_197" type="car7" route="route4_2" depart="66" departLane = "0" departSpeed="11.180000"/>
	<vehicle id="L_198" type="car6" route="route2_3" depart="67" departLane = "2" departSpeed="11.180000"/>
	<vehicle id="R_199" type="car9" route="route3_2" depart="67" departLane = "2" departSpeed="11.180000"/>
	<vehicle id="R_200" type="car8" route="route4_3" depart="67" departLane = "0" departSpeed="11.180000"/>
	<vehicle id="S_201" type="car7" route="route1_3" depart="68" departLane = "1" departSpeed="11.180000"/>
	<vehicle id="L_202" type="car5" route="route2_3" depart="68" departLane = "2" departSpeed="11.180000"/>
	<vehicle id="R_203" type="car6" route="route3_2" depart="68" departLane = "1" departSpeed="11.180000"/>
	<vehicle id="L_204" type="car7" route="route4_1" depart="68" departLane = "0" departSpeed="11.180000"/>
	<vehicle id="R_205" type="car6" route="route1_4" depart="69" departLane = "2" departSpeed="11.180000"/>
	<vehicle id="L_206" type="car5" route="route2_3" depart="69" departLane = "0" departSpeed="11.180000"/>
	<vehicle id="R_207" type="car9" route="route3_2" depart="69" departLane = "1" departSpeed="11.180000"/>
	<vehicle id="S_208" type="car8" route="route4_2" depart="69" departLane = "2" departSpeed="11.180000"/>
	<vehicle id="R_209" type="car6" route="route1_4" depart="70" departLane = "2" departSpeed="11.180000"/>
	<vehicle id="S_210" type="car8" route="route2_4" depart="70" departLane = "1" departSpeed="11.180000"/>
	<vehicle id="S_211" type="car5" route="route3_1" depart="70" departLane = "0" departSpeed="11.180000"/>
	<vehicle id="L_212" type="car7" route="route4_1" depart="70" departLane = "2" departSpeed="11.180000"/>
	<vehicle id="L_213" type="car5" route="route1_2" depart="71" departLane = "0" departSpeed="11.180000"/>
	<vehicle id="S_214" type="car5" route="route2_4" depart="71" departLane = "2" departSpeed="11.180000"/>
	<vehicle id="S_215" type="car5" route="route3_1" depart="71" departLane = "2" departSpeed="11.180000"/>
	<vehicle id="R_216" type="car8" route="route1_4" depart="72" departLane = "2" departSpeed="11.180000"/>
	<vehicle id="S_217" type="car7" route="route2_4" depart="72" departLane = "0" departSpeed="11.180000"/>
	<vehicle id="R_218" type="car7" route="route3_2" depart="72" departLane = "2" departSpeed="11.180000"/>
	<vehicle id="L_219" type="car8" route="route4_1" depart="72" departLane = "0" departSpeed="11.180000"/>
	<vehicle id="L_220" type="car5" route="route1_2" depart="73" departLane = "1" departSpeed="11.180000"/>
	<vehicle id="S_221" type="car7" route="route2_4" depart="73" departLane = "0" departSpeed="11.180000"/>
	<vehicle id="L_222" type="car9" route="route3_4" depart="73" departLane = "0" departSpeed="11.180000"/>
	<vehicle id="R_223" type="car6" route="route1_4" depart="74" departLane = "2" departSpeed="11.180000"/>
	<vehicle id="S_224" type="car5" route="route2_4" depart="74" departLane = "1" departSpeed="11.180000"/>
	<vehicle id="L_225" type="car7" route="route3_4" depart="74" departLane = "1" departSpeed="11.180000"/>
	<vehicle id="R_226" type="car7" route="route4_3" depart="74" departLane = "1" departSpeed="11.180000"/>
	<vehicle id="S_227" type="car7" route="route1_3" depart="75" departLane = "2" departSpeed="11.180000"/>
	<vehicle id="L_228" type="car7" route="route2_3" depart="75" departLane = "1" departSpeed="11.180000"/>
	<vehicle id="S_229" type="car7" route="route3_1" depart="75" departLane = "0" departSpeed="11.180000"/>
	<vehicle id="L_230" type="car9" route="route4_1" depart="75" departLane = "2" departSpeed="11.180000"/>
	<vehicle id="R_231" type="car7" route="route1_4" depart="76" departLane = "1" departSpeed="11.180000"/>
	<vehicle id="L_232" type="car8" route="route2_3" depart="76" departLane = "1" departSpeed="11.180000"/>
	<vehicle id="R_233" type="car8" route="route3_2" depart="76" departLane = "2" departSpeed="11.180000"/>
	<vehicle id="R_234" type="car6" route="route4_3" depart="76" departLane = "1" departSpeed="11.180000"/>
	<vehicle id="R_235" type="car7" route="route1_4" depart="77" departLane = "1" departSpeed="11.180000"/>
	<vehicle id="S_236" type="car9" route="route2_4" depart="77" departLane = "0" departSpeed="11.180000"/>
	<vehicle id="S_237" type="car9" route="route3_1" depart="77" departLane = "0" departSpeed="11.180000"/>
	<vehicle id="R_238" type="car5" route="route4_3" depart="77" departLane = "2" departSpeed="11.180000"/>
	<vehicle id="R_239" type="car7" route="route1_4" depart="78" departLane = "0" departSpeed="11.180000"/>
	<vehicle id="L_240" type="car8" route="route2_3" depart="78" departLane = "0" departSpeed="11.180000"/>
	<vehicle id="L_241" type="car5" route="route3_4" depart="78" departLane = "1" departSpeed="11.180000"/>
	<vehicle id="L_242" type="car9" route="route4_1" depart="78" departLane = "2" departSpeed="11.180000"/>
	<vehicle id="R_243" type="car8" route="route3_2" depart="79" departLane = "2" departSpeed="11.180000"/>
	<vehicle id="R_244" type="car5" route="route4_3" depart="79" departLane = "2" departSpeed="11.180000"/>
	<vehicle id="L_245" type="car6" route="route1_2" depart="80" departLane = "2" departSpeed="11.180000"/>
	<vehicle id="R_246" type="car5" route="route2_1" depart="80" departLane = "2" departSpeed="11.180000"/>
	<vehicle id="S_247" type="car8" route="route3_1" depart="80" departLane = "2" departSpeed="11.180000"/>
	<vehicle id="L_248" type="car6" route="route4_1" depart="80" departLane = "1" departSpeed="11.180000"/>
	<vehicle id="R_249" type="car8" route="route1_4" depart="81" departLane = "1" departSpeed="11.180000"/>
	<vehicle id="R_250" type="car6" route="route2_1" depart="81" departLane = "2" departSpeed="11.180000"/>
	<vehicle id="L_251" type="car9" route="route3_4" depart="81" departLane = "2" departSpeed="11.180000"/>
	<vehicle id="L_252" type="car8" route="route4_1" depart="81" departLane = "1" departSpeed="11.180000"/>
	<vehicle id="L_253" type="car6" route="route1_2" depart="82" departLane = "0" departSpeed="11.180000"/>
	<vehicle id="R_254" type="car7" route="route2_1" depart="82" departLane = "1" departSpeed="11.180000"/>
	<vehicle id="L_255" type="car9" route="route4_1" depart="82" departLane = "1" departSpeed="11.180000"/>
	<vehicle id="S_256" type="car6" route="route1_3" depart="83" departLane = "1" departSpeed="11.180000"/>
	<vehicle id="L_257" type="car8" route="route2_3" depart="83" departLane = "0" departSpeed="11.180000"/>
	<vehicle id="R_258" type="car9" route="route3_2" depart="83" departLane = "0" departSpeed="11.180000"/>
	<vehicle id="S_259" type="car5" route="route4_2" depart="83" departLane = "0" departSpeed="11.180000"/>
	<vehicle id="L_260" type="car8" route="route1_2" depart="84" departLane = "0" departSpeed="11.180000"/>
	<vehicle id="S_261" type="car5" route="route2_4" depart="84" departLane = "2" departSpeed="11.180000"/>
	<vehicle id="L_262" type="car5" route="route4_1" depart="84" departLane = "2" departSpeed="11.180000"/>
	<vehicle id="S_263" type="car5" route="route1_3" depart="85" departLane = "1" departSpeed="11.180000"/>
	<vehicle id="S_264" type="car7" route="route2_4" depart="85" departLane = "1" departSpeed="11.180000"/>
	<vehicle id="R_265" type="car5" route="route3_2" depart="85" departLane = "1" departSpeed="11.180000"/>
	<vehicle id="R_266" type="car5" route="route4_3" depart="85" departLane = "2" departSpeed="11.180000"/>
	<vehicle id="L_267" type="car8" route="route1_2" depart="86" departLane = "1" departSpeed="11.180000"/>
	<vehicle id="L_268" type="car7" route="route2_3" depart="86" departLane = "0" departSpeed="11.180000"/>
	<vehicle id="R_269" type="car9" route="route3_2" depart="86" departLane = "1" departSpeed="11.180000"/>
	<vehicle id="R_270" type="car9" route="route4_3" depart="86" departLane = "2" departSpeed="11.180000"/>
	<vehicle id="L_271" type="car5" route="route1_2" depart="87" departLane = "1" departSpeed="11.180000"/>
	<vehicle id="R_272" type="car5" route="route2_1" depart="87" departLane = "1" departSpeed="11.180000"/>
	<vehicle id="R_273" type="car9" route="route3_2" depart="87" departLane = "2" departSpeed="11.180000"/>