<routes>

	<vType id="car5" accel="200.0" decel="200.0" sigma="0.0" length="5" minGap="3.000000" maxSpeed="11.180000" tau="0.100000" carFollowModel="CACC" color="255,255,255"/>
	<vType id="car6" accel="200.0" decel="200.0" sigma="0.0" length="6" minGap="3.000000" maxSpeed="11.180000" tau="0.100000" carFollowModel="CACC" color="255,255,255"/>
	<vType id="car7" accel="200.0" decel="200.0" sigma="0.0" length="7" minGap="3.000000" maxSpeed="11.180000" tau="0.100000" carFollowModel="CACC" color="255,255,255"/>
	<vType id="car8" accel="200.0" decel="200.0" sigma="0.0" length="8" minGap="3.000000" maxSpeed="11.180000" tau="0.100000" carFollowModel="CACC" color="255,255,255"/>
	<vType id="car9" accel="200.0" decel="200.0" sigma="0.0" length="9" minGap="3.000000" maxSpeed="11.180000" tau="0.100000" carFollowModel="CACC" color="255,255,255"/>

	<route id="route001_001_1_2" edges=" 001_001_1"/>
	<route id="route001_001_1_3" edges=" 001_001_1"/>
	<route id="route001_001_1_4" edges=" 001_001_1"/>
	<route id="route001_001_2_1" edges=" 001_001_2"/>
	<route id="route001_001_2_3" edges=" 001_001_2"/>
	<route id="route001_001_2_4" edges=" 001_001_2"/>
	<route id="route001_001_3_1" edges=" 001_001_3"/>
	<route id="route001_001_3_2" edges=" 001_001_3"/>
	<route id="route001_001_3_4" edges=" 001_001_3"/>
	<route id="route001_001_4_1" edges=" 001_001_4"/>
	<route id="route001_001_4_2" edges=" 001_001_4"/>
	<route id="route001_001_4_3" edges=" 001_001_4"/>
	<route id="route001_002_1_2" edges=" 001_002_1"/>
	<route id="route001_002_1_3" edges=" 001_002_1"/>
	<route id="route001_002_1_4" edges=" 001_002_1"/>
	<route id="route001_002_2_1" edges=" 001_002_2"/>
	<route id="route001_002_2_3" edges=" 001_002_2"/>
	<route id="route001_002_2_4" edges=" 001_002_2"/>
	<route id="route001_002_3_1" edges=" 001_002_3"/>
	<route id="route001_002_3_2" edges=" 001_002_3"/>
	<route id="route001_002_3_4" edges=" 001_002_3"/>
	<route id="route001_002_4_1" edges=" 001_002_4"/>
	<route id="route001_002_4_2" edges=" 001_002_4"/>
	<route id="route001_002_4_3" edges=" 001_002_4"/>
	<route id="route002_001_1_2" edges=" 002_001_1"/>
	<route id="route002_001_1_3" edges=" 002_001_1"/>
	<route id="route002_001_1_4" edges=" 002_001_1"/>
	<route id="route002_001_2_1" edges=" 002_001_2"/>
	<route id="route002_001_2_3" edges=" 002_001_2"/>
	<route id="route002_001_2_4" edges=" 002_001_2"/>
	<route id="route002_001_3_1" edges=" 002_001_3"/>
	<route id="route002_001_3_2" edges=" 002_001_3"/>
	<route id="route002_001_3_4" edges=" 002_001_3"/>
	<route id="route002_001_4_1" edges=" 002_001_4"/>
	<route id="route002_001_4_2" edges=" 002_001_4"/>
	<route id="route002_001_4_3" edges=" 002_001_4"/>
	<route id="route002_002_1_2" edges=" 002_002_1"/>
	<route id="route002_002_1_3" edges=" 002_002_1"/>
	<route id="route002_002_1_4" edges=" 002_002_1"/>
	<route id="route002_002_2_1" edges=" 002_002_2"/>
	<route id="route002_002_2_3" edges=" 002_002_2"/>
	<route id="route002_002_2_4" edges=" 002_002_2"/>
	<route id="route002_002_3_1" edges=" 002_002_3"/>
	<route id="route002_002_3_2" edges=" 002_002_3"/>
	<route id="route002_002_3_4" edges=" 002_002_3"/>
	<route id="route002_002_4_1" edges=" 002_002_4"/>
	<route id="route002_002_4_2" edges=" 002_002_4"/>
	<route id="route002_002_4_3" edges=" 002_002_4"/>

	<vehicle id="SRX_0" type="car5" route="route001_001_1_3" depart="0" departLane = "1" departSpeed="11.180000"/>
	<vehicle id="LX_1" type="car8" route="route001_001_4_1" depart="0" departLane = "2" departSpeed="11.180000"/>
	<vehicle id="LX_2" type="car8" route="route002_001_3_4" depart="0" departLane = "2" departSpeed="11.180000"/>
	<vehicle id="LLX_3" type="car6" route="route002_001_4_1" depart="0" departLane = "2" departSpeed="11.180000"/>
	<vehicle id="LX_4" type="car5" route="route001_002_1_2" depart="0" departLane = "2" departSpeed="11.180000"/>
	<vehicle id="SSX_5" type="car8" route="route001_002_2_4" depart="0" departLane = "1" departSpeed="11.180000"/>
	<vehicle id="SSX_6" type="car5" route="route002_002_2_4" depart="0" departLane = "1" departSpeed="11.180000"/>
	<vehicle id="RX_7" type="car7" route="route002_002_3_2" depart="0" departLane = "0" departSpeed="11.180000"/>
	<vehicle id="LRSX_8" type="car6" route="route001_001_1_2" depart="1" departLane = "2" departSpeed="11.180000"/>
	<vehicle id="SRSX_9" type="car5" route="route001_001_4_2" depart="1" departLane = "1" departSpeed="11.180000"/>
	<vehicle id="SLSX_10" type="car5" route="route002_001_4_2" depart="1" departLane = "1" departSpeed="11.180000"/>
	<vehicle id="RRX_11" type="car5" route="route001_002_1_4" depart="1" departLane = "0" departSpeed="11.180000"/>
	<vehicle id="RLSX_12" type="car6" route="route002_002_2_1" depart="1" departLane = "0" departSpeed="11.180000"/>
	<vehicle id="RX_13" type="car9" route="route001_001_1_4" depart="2" departLane = "0" departSpeed="11.180000"/>
	<vehicle id="RLRX_14" type="car8" route="route001_001_4_3" depart="2" departLane = "0" departSpeed="11.180000"/>
	<vehicle id="LLX_15" type="car7" route="route002_001_4_1" depart="2" departLane = "2" departSpeed="11.180000"/>
	<vehicle id="RSX_16" type="car6" route="route001_002_1_4" depart="2" departLane = "0" departSpeed="11.180000"/>
	<vehicle id="RX_17" type="car7" route="route001_002_2_1" depart="2" departLane = "0" departSpeed="11.180000"/>
	<vehicle id="SLRX_18" type="car9" route="route002_002_3_1" depart="2" departLane = "1" departSpeed="11.180000"/>
	<vehicle id="LX_19" type="car7" route="route001_001_4_1" depart="3" departLane = "2" departSpeed="11.180000"/>
	<vehicle id="RRX_20" type="car7" route="route002_001_3_2" depart="3" departLane = "0" departSpeed="11.180000"/>
	<vehicle id="LRSX_21" type="car9" route="route002_001_4_1" depart="3" departLane = "2" departSpeed="11.180000"/>
	<vehicle id="SLSX_22" type="car6" route="route001_002_2_4" depart="3" departLane = "1" departSpeed="11.180000"/>
	<vehicle id="RLRX_23" type="car9" route="route002_002_2_1" depart="3" departLane = "0" departSpeed="11.180000"/>
	<vehicle id="SLSX_24" type="car9" route="route001_001_1_3" depart="4" departLane = "1" departSpeed="11.180000"/>
	<vehicle id="LX_25" type="car5" route="route001_001_4_1" depart="4" departLane = "2" departSpeed="11.180000"/>
	<vehicle id="LX_26" type="car8" route="route002_001_3_4" depart="4" departLane = "2" departSpeed="11.180000"/>
	<vehicle id="LRLX_27" type="car6" route="route002_001_4_1" depart="4" departLane = "2" departSpeed="11.180000"/>
	<vehicle id="RLRX_28" type="car7" route="route001_002_1_4" depart="4" departLane = "0" departSpeed="11.180000"/>
	<vehicle id="LSX_29" type="car9" route="route001_002_2_3" depart="4" departLane = "2" departSpeed="11.180000"/>
	<vehicle id="LX_30" type="car6" route="route002_002_2_3" depart="4" departLane = "2" departSpeed="11.180000"/>
	<vehicle id="SRX_31" type="car8" route="route002_002_3_1" depart="4" departLane = "1" departSpeed="11.180000"/>
	<vehicle id="LSX_32" type="car5" route="route001_001_1_2" depart="5" departLane = "2" departSpeed="11.180000"/>
	<vehicle id="RSX_33" type="car7" route="route001_001_4_3" depart="5" departLane = "0" departSpeed="11.180000"/>
	<vehicle id="LX_34" type="car9" route="route002_001_3_4" depart="5" departLane = "2" departSpeed="11.180000"/>
	<vehicle id="SSX_35" type="car8" route="route002_001_4_2" depart="5" departLane = "1" departSpeed="11.180000"/>
	<vehicle id="SRSX_36" type="car6" route="route001_002_1_3" depart="5" departLane = "1" departSpeed="11.180000"/>
	<vehicle id="RX_37" type="car5" route="route001_002_2_1" depart="5" departLane = "0" departSpeed="11.180000"/>
	<vehicle id="SSX_38" type="car9" route="route002_002_2_4" depart="5" departLane = "1" departSpeed="11.180000"/>
	<vehicle id="RX_39" type="car8" route="route001_001_1_4" depart="6" departLane = "0" departSpeed="11.180000"/>
	<vehicle id="SSX_40" type="car9" route="route001_001_4_2" depart="6" departLane = "1" departSpeed="11.180000"/>
	<vehicle id="SSX_41" type="car7" route="route002_001_3_1" depart="6" departLane = "1" departSpeed="11.180000"/>
	<vehicle id="SSX_42" type="car9" route="route002_001_4_2" depart="6" departLane = "1" departSpeed="11.180000"/>
	<vehicle id="LRSX_43" type="car9" route="route001_002_2_3" depart="6" departLane = "2" departSpeed="11.180000"/>
	<vehicle id="RSX_44" type="car9" route="route002_002_2_1" depart="6" departLane = "0" departSpeed="11.180000"/>
	<vehicle id="LRSX_45" type="car6" route="route002_002_3_4" depart="6" departLane = "2" departSpeed="11.180000"/>
	<vehicle id="RX_46" type="car5" route="route001_001_1_4" depart="7" departLane = "0" departSpeed="11.180000"/>
	<vehicle id="LX_47" type="car7" route="route001_001_4_1" depart="7" departLane = "2" departSpeed="11.180000"/>
	<vehicle id="SLX_48" type="car6" route="route002_001_3_1" depart="7" departLane = "1" departSpeed="11.180000"/>
	<vehicle id="RLSX_49" type="car7" route="route001_002_1_4" depart="7" departLane = "0" departSpeed="11.180000"/>
	<vehicle id="SSX_50" type="car5" route="route001_002_2_4" depart="7" departLane = "1" departSpeed="11.180000"/>
	<vehicle id="LX_51" type="car9" route="route002_002_2_3" depart="7" departLane = "2" departSpeed="11.180000"/>
	<vehicle id="RX_52" type="car7" route="route002_002_3_2" depart="7" departLane = "0" departSpeed="11.180000"/>
	<vehicle id="SLRX_53" type="car5" route="route001_001_1_3" depart="8" departLane = "1" departSpeed="11.180000"/>
	<vehicle id="LX_54" type="car6" route="route001_001_4_1" depart="8" departLane = "2" departSpeed="11.180000"/>
	<vehicle id="SLX_55" type="car6" route="route002_001_3_1" depart="8" departLane = "1" departSpeed="11.180000"/>
	<vehicle id="RX_56" type="car9" route="route002_001_4_3" depart="8" departLane = "0" departSpeed="11.180000"/>
	<vehicle id="SRLX_57" type="car7" route="route001_002_1_3" depart="8" departLane = "1" departSpeed="11.180000"/>
	<vehicle id="LRSX_58" type="car5" route="route001_002_2_3" depart="8" departLane = "2" departSpeed="11.180000"/>
	<vehicle id="SLX_59" type="car5" route="route002_002_2_4" depart="8" departLane = "1" departSpeed="11.180000"/>
	<vehicle id="SRX_60" type="car7" route="route002_002_3_1" depart="8" departLane = "1" departSpeed="11.180000"/>
	<vehicle id="LSX_61" type="car5" route="route001_001_1_2" depart="9" departLane = "2" departSpeed="11.180000"/>
	<vehicle id="LX_62" type="car6" route="route001_001_4_1" depart="9" departLane = "2" departSpeed="11.180000"/>
	<vehicle id="SLX_63" type="car5" route="route002_001_3_1" depart="9" departLane = "1" departSpeed="11.180000"/>
	<vehicle id="LSX_64" type="car7" route="route002_001_4_1" depart="9" departLane = "2" departSpeed="11.180000"/>
	<vehicle id="LX_65" type="car6" route="route001_002_1_2" depart="9" departLane = "2" departSpeed="11.180000"/>
	<vehicle id="SLSX_66" type="car7" route="route001_002_2_4" depart="9" departLane = "1" departSpeed="11.180000"/>
	<vehicle id="LX_67" type="car7" route="route002_002_2_3" depart="9" departLane = "2" departSpeed="11.180000"/>
	<vehicle id="RX_68" type="car5" route="route002_002_3_2" depart="9" departLane = "0" departSpeed="11.180000"/>
	<vehicle id="SSX_69" type="car8" route="route001_001_1_3" depart="10" departLane = "1" departSpeed="11.180000"/>
	<vehicle id="RLSX_70" type="car6" route="route001_001_4_3" depart="10" departLane = "0" departSpeed="11.180000"/>
	<vehicle id="LX_71" type="car7" route="route002_001_3_4" depart="10" departLane = "2" departSpeed="11.180000"/>
	<vehicle id="SSX_72" type="car9" route="route002_001_4_2" depart="10" departLane = "1" departSpeed="11.180000"/>
	<vehicle id="SRLX_73" type="car5" route="route002_002_2_4" depart="10" departLane = "1" departSpeed="11.180000"/>
	<vehicle id="LRSX_74" type="car8" route="route002_002_3_4" depart="10" departLane = "2" departSpeed="11.180000"/>
	<vehicle id="SRX_75" type="car6" route="route001_001_1_3" depart="11" departLane = "1" departSpeed="11.180000"/>
	<vehicle id="SSX_76" type="car9" route="route001_001_4_2" depart="11" departLane = "1" departSpeed="11.180000"/>
	<vehicle id="SLX_77" type="car9" route="route002_001_3_1" depart="11" departLane = "1" departSpeed="11.180000"/>
	<vehicle id="RX_78" type="car9" route="route002_001_4_3" depart="11" departLane = "0" departSpeed="11.180000"/>
	<vehicle id="RRX_79" type="car9" route="route001_002_1_4" depart="11" departLane = "0" departSpeed="11.180000"/>
	<vehicle id="SLSX_80" type="car8" route="route001_002_2_4" depart="11" departLane = "1" departSpeed="11.180000"/>
	<vehicle id="LX_81" type="car7" route="route002_002_2_3" depart="11" departLane = "2" departSpeed="11.180000"/>
	<vehicle id="LRSX_82" type="car8" route="route002_002_3_4" depart="11" departLane = "2" departSpeed="11.180000"/>
	<vehicle id="LLX_83" type="car7" route="route001_001_1_2" depart="12" departLane = "2" departSpeed="11.180000"/>
	<vehicle id="LX_84" type="car6" route="route001_001_4_1" depart="12" departLane = "2" departSpeed="11.180000"/>
	<vehicle id="LX_85" type="car7" route="route002_001_3_4" depart="12" departLane = "2" departSpeed="11.180000"/>
	<vehicle id="RX_86" type="car5" route="route002_001_4_3" depart="12" departLane = "0" departSpeed="11.180000"/>
	<vehicle id="SLX_87" type="car7" route="route001_002_1_3" depart="12" departLane = "1" departSpeed="11.180000"/>
	<vehicle id="RX_88" type="car8" route="route001_002_2_1" depart="12" departLane = "0" departSpeed="11.180000"/>
	<vehicle id="LX_89" type="car6" route="route002_002_2_3" depart="12" departLane = "2" departSpeed="11.180000"/>
	<vehicle id="LRLX_90" type="car5" route="route002_002_3_4" depart="12" departLane = "2" departSpeed="11.180000"/>
	<vehicle id="LLX_91" type="car6" route="route001_001_1_2" depart="13" departLane = "2" departSpeed="11.180000"/>
	<vehicle id="LX_92" type="car6" route="route002_001_3_4" depart="13" departLane = "2" departSpeed="11.180000"/>
	<vehicle id="SSX_93" type="car9" route="route002_001_4_2" depart="13" departLane = "1" departSpeed="11.180000"/>
	<vehicle id="SLX_94" type="car8" route="route001_002_1_3" depart="13" departLane = "1" departSpeed="11.180000"/>
	<vehicle id="RX_95" type="car5" route="route001_002_2_1" depart="13" departLane = "0" departSpeed="11.180000"/>
	<vehicle id="SSX_96" type="car8" route="route002_002_2_4" depart="13" departLane = "1" departSpeed="11.180000"/>
	<vehicle id="SRX_97" type="car8" route="route002_002_3_1" depart="13" departLane = "1" departSpeed="11.180000"/>
	<vehicle id="RX_98" type="car8" route="route001_001_1_4" depart="14" departLane = "0" departSpeed="11.180000"/>
	<vehicle id="LX_99" type="car8" route="route001_001_4_1" depart="14" departLane = "2" departSpeed="11.180000"/>
	<vehicle id="LX_100" type="car9" route="route002_001_3_4" depart="14" departLane = "2" departSpeed="11.180000"/>
	<vehicle id="SSX_101" type="car7" route="route002_001_4_2" depart="14" departLane = "1" departSpeed="11.180000"/>
	<vehicle id="LX_102" type="car6" route="route001_002_1_2" depart="14" departLane = "2" departSpeed="11.180000"/>
	<vehicle id="RX_103" type="car9" route="route001_002_2_1" depart="14" departLane = "0" departSpeed="11.180000"/>
	<vehicle id="LX_104" type="car7" route="route002_002_2_3" depart="14" departLane = "2" departSpeed="11.180000"/>
	<vehicle id="LRSX_105" type="car7" route="route002_002_3_4" depart="14" departLane = "2" departSpeed="11.180000"/>
	<vehicle id="RX_106" type="car8" route="route001_001_1_4" depart="15" departLane = "0" departSpeed="11.180000"/>
	<vehicle id="SRLX_107" type="car9" route="route002_001_3_1" depart="15" departLane = "1" departSpeed="11.180000"/>
	<vehicle id="LLX_108" type="car9" route="route002_001_4_1" depart="15" departLane = "2" departSpeed="11.180000"/>
	<vehicle id="RRX_109" type="car5" route="route001_002_1_4" depart="15" departLane = "0" departSpeed="11.180000"/>
	<vehicle id="RX_110" type="car6" route="route001_002_2_1" depart="15" departLane = "0" departSpeed="11.180000"/>
	<vehicle id="RLRX_111" type="car9" route="route002_002_2_1" depart="15" departLane = "0" departSpeed="11.180000"/>
	<vehicle id="RX_112" type="car7" route="route002_002_3_2" depart="15" departLane = "0" departSpeed="11.180000"/>
	<vehicle id="RX_113" type="car7" route="route001_001_1_4" depart="16" departLane = "0" departSpeed="11.180000"/>
	<vehicle id="SRSX_114" type="car7" route="route001_001_4_2" depart="16" departLane = "1" departSpeed="11.180000"/>
	<vehicle id="RSX_115" type="car6" route="route002_001_3_2" depart="16" departLane = "0" departSpeed="11.180000"/>
	<vehicle id="SSX_116" type="car9" route="route002_001_4_2" depart="16" departLane = "1" departSpeed="11.180000"/>
	<vehicle id="SSX_117" type="car8" route="route001_002_1_3" depart="16" departLane = "1" departSpeed="11.180000"/>
	<vehicle id="RX_118" type="car9" route="route001_002_2_1" depart="16" departLane = "0" departSpeed="11.180000"/>
	<vehicle id="RSX_119" type="car7" route="route002_002_2_1" depart="16" departLane = "0" departSpeed="11.180000"/>
	<vehicle id="RX_120" type="car5" route="route002_002_3_2" depart="16" departLane = "0" departSpeed="11.180000"/>
	<vehicle id="LLX_121" type="car6" route="route001_001_1_2" depart="17" departLane = "2" departSpeed="11.180000"/>
	<vehicle id="LX_122" type="car7" route="route001_001_4_1" depart="17" departLane = "2" departSpeed="11.180000"/>
	<vehicle id="SLX_123" type="car9" route="route002_001_3_1" depart="17" departLane = "1" departSpeed="11.180000"/>
	<vehicle id="RX_124" type="car8" route="route002_001_4_3" depart="17" departLane = "0" departSpeed="11.180000"/>
	<vehicle id="RLSX_125" type="car9" route="route001_002_1_4" depart="17" departLane = "0" departSpeed="11.180000"/>
	<vehicle id="LSX_126" type="car5" route="route001_002_2_3" depart="17" departLane = "2" departSpeed="11.180000"/>
	<vehicle id="RX_127" type="car7" route="route002_002_3_2" depart="17" departLane = "0" departSpeed="11.180000"/>
	<vehicle id="SLSX_128" type="car5" route="route001_001_1_3" depart="18" departLane = "1" departSpeed="11.180000"/>
	<vehicle id="SRLX_129" type="car7" route="route001_001_4_2" depart="18" departLane = "1" departSpeed="11.180000"/>
	<vehicle id="LX_130" type="car5" route="route002_001_3_4" depart="18" departLane = "2" departSpeed="11.180000"/>
	<vehicle id="RX_131" type="car5" route="route002_001_4_3" depart="18" departLane = "0" departSpeed="11.180000"/>
	<vehicle id="SSX_132" type="car5" route="route001_002_1_3" depart="18" departLane = "1" departSpeed="11.180000"/>
	<vehicle id="SLSX_133" type="car5" route="route001_002_2_4" depart="18" departLane = "1" departSpeed="11.180000"/>
	<vehicle id="SLX_134" type="car5" route="route002_002_2_4" depart="18" departLane = "1" departSpeed="11.180000"/>
	<vehicle id="SSX_135" type="car9" route="route002_002_3_1" depart="18" departLane = "1" departSpeed="11.180000"/>
	<vehicle id="RX_136" type="car5" route="route001_001_1_4" depart="19" departLane = "0" departSpeed="11.180000"/>
	<vehicle id="LX_137" type="car6" route="route001_001_4_1" depart="19" departLane = "2" departSpeed="11.180000"/>
	<vehicle id="RSX_138" type="car5" route="route002_001_3_2" depart="19" departLane = "0" departSpeed="11.180000"/>
	<vehicle id="LRLX_139" type="car8" route="route002_001_4_1" depart="19" departLane = "2" departSpeed="11.180000"/>
	<vehicle id="LX_140" type="car9" route="route001_002_1_2" depart="19" departLane = "2" departSpeed="11.180000"/>
	<vehicle id="LX_141" type="car7" route="route002_002_2_3" depart="19" departLane = "2" departSpeed="11.180000"/>
	<vehicle id="LSX_142" type="car7" route="route002_002_3_4" depart="19" departLane = "2" departSpeed="11.180000"/>
	<vehicle id="SRX_143" type="car7" route="route001_001_1_3" depart="20" departLane = "1" departSpeed="11.180000"/>
	<vehicle id="RLRX_144" type="car5" route="route001_001_4_3" depart="20" departLane = "0" departSpeed="11.180000"/>
	<vehicle id="SRSX_145" type="car7" route="route002_001_3_1" depart="20" departLane = "1" departSpeed="11.180000"/>
	<vehicle id="SSX_146" type="car7" route="route002_001_4_2" depart="20" departLane = "1" departSpeed="11.180000"/>
	<vehicle id="RRX_147" type="car7" route="route001_002_1_4" depart="20" departLane = "0" departSpeed="11.180000"/>
	<vehicle id="LLX_148" type="car5" route="route001_002_2_3" depart="20" departLane = "2" departSpeed="11.180000"/>
	<vehicle id="RRX_149" type="car6" route="route001_001_4_3" depart="21" departLane = "0" departSpeed="11.180000"/>
	<vehicle id="LX_150" type="car9" route="route002_001_3_4" depart="21" departLane = "2" departSpeed="11.180000"/>
	<vehicle id="LSX_151" type="car8" route="route002_001_4_1" depart="21" departLane = "2" departSpeed="11.180000"/>
	<vehicle id="SLX_152" type="car7" route="route001_002_1_3" depart="21" departLane = "1" departSpeed="11.180000"/>
	<vehicle id="LSX_153" type="car6" route="route001_002_2_3" depart="21" departLane = "2" departSpeed="11.180000"/>
	<vehicle id="LX_154" type="car6" route="route002_002_2_3" depart="21" departLane = "2" departSpeed="11.180000"/>
	<vehicle id="SLSX_155" type="car7" route="route002_002_3_1" depart="21" departLane = "1" departSpeed="11.180000"/>
	<vehicle id="RX_156" type="car8" route="route001_001_1_4" depart="22" departLane = "0" departSpeed="11.180000"/>
	<vehicle id="LX_157" type="car9" route="route001_001_4_1" depart="22" departLane = "2" departSpeed="11.180000"/>
	<vehicle id="SSX_158" type="car6" route="route002_001_3_1" depart="22" departLane = "1" departSpeed="11.180000"/>
	<vehicle id="RX_159" type="car7" route="route002_001_4_3" depart="22" departLane = "0" departSpeed="11.180000"/>
	<vehicle id="RRX_160" type="car6" route="route001_002_1_4" depart="22" departLane = "0" departSpeed="11.180000"/>
	<vehicle id="SLRX_161" type="car9" route="route001_002_2_4" depart="22" departLane = "1" departSpeed="11.180000"/>
	<vehicle id="LX_162" type="car7" route="route002_002_2_3" depart="22" departLane = "2" departSpeed="11.180000"/>
	<vehicle id="SRX_163" type="car5" route="route002_002_3_1" depart="22" departLane = "1" departSpeed="11.180000"/>
	<vehicle id="LLX_164" type="car9" route="route001_001_1_2" depart="23" departLane = "2" departSpeed="11.180000"/>
	<vehicle id="LX_165" type="car5" route="route001_001_4_1" depart="23" departLane = "2" departSpeed="11.180000"/>
	<vehicle id="SLX_166" type="car5" route="route002_001_3_1" depart="23" departLane = "1" departSpeed="11.180000"/>
	<vehicle id="LRLX_167" type="car8" route="route002_001_4_1" depart="23" departLane = "2" departSpeed="11.180000"/>
	<vehicle id="LX_168" type="car9" route="route001_002_1_2" depart="23" departLane = "2" departSpeed="11.180000"/>
	<vehicle id="SLSX_169" type="car5" route="route001_002_2_4" depart="23" departLane = "1" departSpeed="11.180000"/>
	<vehicle id="LX_170" type="car5" route="route002_002_2_3" depart="23" departLane = "2" departSpeed="11.180000"/>
	<vehicle id="LRLX_171" type="car7" route="route002_002_3_4" depart="23" departLane = "2" departSpeed="11.180000"/>
	<vehicle id="RX_172" type="car6" route="route001_001_1_4" depart="24" departLane = "0" departSpeed="11.180000"/>
	<vehicle id="SLX_173" type="car7" route="route001_001_4_2" depart="24" departLane = "1" departSpeed="11.180000"/>
	<vehicle id="SSX_174" type="car6" route="route002_001_3_1" depart="24" departLane = "1" departSpeed="11.180000"/>
	<vehicle id="LSX_175" type="car6" route="route002_001_4_1" depart="24" departLane = "2" departSpeed="11.180000"/>
	<vehicle id="LRLX_176" type="car7" route="route001_002_2_3" depart="24" departLane = "2" departSpeed="11.180000"/>
	<vehicle id="SLX_177" type="car9" route="route002_002_2_4" depart="24" departLane = "1" departSpeed="11.180000"/>
	<vehicle id="SSX_178" type="car9" route="route002_002_3_1" depart="24" departLane = "1" departSpeed="11.180000"/>
	<vehicle id="LLX_179" type="car6" route="route001_001_1_2" depart="25" departLane = "2" departSpeed="11.180000"/>
	<vehicle id="SRLX_180" type="car5" route="route001_001_4_2" depart="25" departLane = "1" departSpeed="11.180000"/>
	<vehicle id="SSX_181" type="car9" route="route002_001_3_1" depart="25" departLane = "1" departSpeed="11.180000"/>
	<vehicle id="LLX_182" type="car9" route="route002_001_4_1" depart="25" departLane = "2" departSpeed="11.180000"/>
	<vehicle id="SSX_183" type="car6" route="route001_002_1_3" depart="25" departLane = "1" departSpeed="11.180000"/>
	<vehicle id="LSX_184" type="car8" route="route001_002_2_3" depart="25" departLane = "2" departSpeed="11.180000"/>
	<vehicle id="SSX_185" type="car5" route="route002_002_2_4" depart="25" departLane = "1" departSpeed="11.180000"/>
	<vehicle id="LRSX_186" type="car6" route="route002_002_3_4" depart="25" departLane = "2" departSpeed="11.180000"/>
	<vehicle id="LRSX_187" type="car5" route="route001_001_1_2" depart="26" departLane = "2" departSpeed="11.180000"/>
	<vehicle id="LX_188" type="car8" route="route001_001_4_1" depart="26" departLane = "2" departSpeed="11.180000"/>
	<vehicle id="LX_189" type="car9" route="route002_001_3_4" depart="26" departLane = "2" departSpeed="11.180000"/>
	<vehicle id="RX_190" type="car8" route="route002_001_4_3" depart="26" departLane = "0" departSpeed="11.180000"/>
	<vehicle id="RSX_191" type="car8" route="route001_002_1_4" depart="26" departLane = "0" departSpeed="11.180000"/>
	<vehicle id="RX_192" type="car7" route="route001_002_2_1" depart="26" departLane = "0" departSpeed="11.180000"/>
	<vehicle id="RRX_193" type="car8" route="route002_002_2_1" depart="26" departLane = "0" departSpeed="11.180000"/>
	<vehicle id="RX_194" type="car8" route="route002_002_3_2" depart="26" departLane = "0" departSpeed="11.180000"/>
	<vehicle id="LX_195" type="car7" route="route001_001_4_1" depart="27" departLane = "2" departSpeed="11.180000"/>
	<vehicle id="SRLX_196" type="car9" route="route002_001_3_1" depart="27" departLane = "1" departSpeed="11.180000"/>
	<vehicle id="SRX_197" type="car7" route="route002_001_4_2" depart="27" departLane = "1" departSpeed="11.180000"/>
	<vehicle id="SRX_198" type="car9" route="route001_002_2_4" depart="27" departLane = "1" departSpeed="11.180000"/>
	<vehicle id="LX_199" type="car9" route="route002_002_2_3" depart="27" departLane = "2" departSpeed="11.180000"/>
	<vehicle id="LLX_200" type="car8" route="route002_002_3_4" depart="27" departLane = "2" departSpeed="11.180000"/>
	<vehicle id="RX_201" type="car9" route="route001_001_1_4" depart="28" departLane = "0" departSpeed="11.180000"/>
	<vehicle id="RSX_202" type="car8" route="route001_001_4_3" depart="28" departLane = "0" departSpeed="11.180000"/>
	<vehicle id="SLRX_203" type="car6" route="route002_001_4_2" depart="28" departLane = "1" departSpeed="11.180000"/>
	<vehicle id="LX_204" type="car8" route="route001_002_1_2" depart="28" departLane = "2" departSpeed="11.180000"/>
	<vehicle id="LRSX_205" type="car6" route="route001_002_2_3" depart="28" departLane = "2" departSpeed="11.180000"/>
	<vehicle id="SRSX_206" type="car7" route="route002_002_2_4" depart="28" departLane = "1" departSpeed="11.180000"/>
	<vehicle id="RX_207" type="car7" route="route002_002_3_2" depart="28" departLane = "0" departSpeed="11.180000"/>
	<vehicle id="SSX_208" type="car5" route="route001_001_4_2" depart="29" departLane = "1" departSpeed="11.180000"/>
	<vehicle id="LX_209" type="car7" route="route002_001_3_4" depart="29" departLane = "2" departSpeed="11.180000"/>
	<vehicle id="SLRX_210" type="car6" route="route002_001_4_2" depart="29" departLane = "1" departSpeed="11.180000"/>
	<vehicle id="SRSX_211" type="car7" route="route001_002_1_3" depart="29" departLane = "1" departSpeed="11.180000"/>
	<vehicle id="SRX_212" type="car7" route="route001_002_2_4" depart="29" departLane = "1" departSpeed="11.180000"/>
	<vehicle id="RRX_213" type="car8" route="route002_002_2_1" depart="29" departLane = "0" departSpeed="11.180000"/>
	<vehicle id="LSX_214" type="car5" route="route002_002_3_4" depart="29" departLane = "2" departSpeed="11.180000"/>
	<vehicle id="SRX_215" type="car9" route="route001_001_1_3" depart="30" departLane = "1" departSpeed="11.180000"/>
	<vehicle id="LX_216" type="car6" route="route001_001_4_1" depart="30" departLane = "2" departSpeed="11.180000"/>
	<vehicle id="LX_217" type="car8" route="route002_001_3_4" depart="30" departLane = "2" departSpeed="11.180000"/>
	<vehicle id="LRSX_218" type="car9" route="route002_001_4_1" depart="30" departLane = "2" departSpeed="11.180000"/>
	<vehicle id="LX_219" type="car5" route="route001_002_1_2" depart="30" departLane = "2" departSpeed="11.180000"/>
	<vehicle id="RX_220" type="car8" route="route001_002_2_1" depart="30" departLane = "0" departSpeed="11.180000"/>
	<vehicle id="SRSX_221" type="car7" route="route002_002_2_4" depart="30" departLane = "1" departSpeed="11.180000"/>
	<vehicle id="LLX_222" type="car6" route="route002_002_3_4" depart="30" departLane = "2" departSpeed="11.180000"/>
	<vehicle id="SRX_223" type="car5" route="route001_001_1_3" depart="31" departLane = "1" departSpeed="11.180000"/>
	<vehicle id="SRSX_224" type="car5" route="route001_001_4_2" depart="31" departLane = "1" departSpeed="11.180000"/>
	<vehicle id="RLSX_225" type="car5" route="route002_001_3_2" depart="31" departLane = "0" departSpeed="11.180000"/>
	<vehicle id="RX_226" type="car5" route="route002_001_4_3" depart="31" departLane = "0" departSpeed="11.180000"/>
	<vehicle id="LRSX_227" type="car9" route="route001_002_2_3" depart="31" departLane = "2" departSpeed="11.180000"/>
	<vehicle id="SLX_228" type="car5" route="route002_002_2_4" depart="31" departLane = "1" departSpeed="11.180000"/>
	<vehicle id="SRX_229" type="car6" route="route002_002_3_1" depart="31" departLane = "1" departSpeed="11.180000"/>
	<vehicle id="SSX_230" type="car8" route="route001_001_4_2" depart="32" departLane = "1" departSpeed="11.180000"/>
	<vehicle id="RLSX_231" type="car7" route="route002_001_3_2" depart="32" departLane = "0" departSpeed="11.180000"/>
	<vehicle id="RX_232" type="car9" route="route002_001_4_3" depart="32" departLane = "0" departSpeed="11.180000"/>