<routes>

	<vType id="car5" accel="100.0" decel="100.0" sigma="0.0" length="5" minGap="5.000000" maxSpeed="11.180000" tau="0.100000" carFollowModel="CACC" color="255,255,255"/>
	<vType id="car6" accel="100.0" decel="100.0" sigma="0.0" length="6" minGap="5.000000" maxSpeed="11.180000" tau="0.100000" carFollowModel="CACC" color="255,255,255"/>
	<vType id="car7" accel="100.0" decel="100.0" sigma="0.0" length="7" minGap="5.000000" maxSpeed="11.180000" tau="0.100000" carFollowModel="CACC" color="255,255,255"/>
	<vType id="car8" accel="100.0" decel="100.0" sigma="0.0" length="8" minGap="5.000000" maxSpeed="11.180000" tau="0.100000" carFollowModel="CACC" color="255,255,255"/>
	<vType id="car9" accel="100.0" decel="100.0" sigma="0.0" length="9" minGap="5.000000" maxSpeed="11.180000" tau="0.100000" carFollowModel="CACC" color="255,255,255"/>

	<route id="route001_001_4" edges=" 001_001_4"/>
	<route id="route001_001_1" edges=" 001_001_1"/>
	<route id="route001_002_2" edges=" 001_002_2"/>
	<route id="route002_001_3" edges=" 002_001_3"/>
	<route id="route002_001_4" edges=" 002_001_4"/>
	<route id="route001_002_1" edges=" 001_002_1"/>
	<route id="route002_002_2" edges=" 002_002_2"/>
	<route id="route002_002_3" edges=" 002_002_3"/>

	<vehicle id="car_0" type="car9" route="route001_001_4" depart="0" departLane = "2" departSpeed="11.180000"/>
	<vehicle id="car_1" type="car7" route="route001_001_1" depart="0" departLane = "1" departSpeed="11.180000"/>
	<vehicle id="car_2" type="car5" route="route002_001_4" depart="0" departLane = "2" departSpeed="11.180000"/>
	<vehicle id="car_3" type="car8" route="route001_002_1" depart="0" departLane = "0" departSpeed="11.180000"/>
	<vehicle id="car_4" type="car8" route="route002_002_2" depart="0" departLane = "0" departSpeed="11.180000"/>
	<vehicle id="car_5" type="car5" route="route001_001_1" depart="1" departLane = "1" departSpeed="11.180000"/>
	<vehicle id="car_6" type="car6" route="route002_001_3" depart="1" departLane = "1" departSpeed="11.180000"/>
	<vehicle id="car_7" type="car6" route="route002_001_4" depart="1" departLane = "1" departSpeed="11.180000"/>
	<vehicle id="car_8" type="car6" route="route001_002_1" depart="1" departLane = "0" departSpeed="11.180000"/>
	<vehicle id="car_9" type="car7" route="route002_002_2" depart="1" departLane = "0" departSpeed="11.180000"/>
	<vehicle id="car_10" type="car9" route="route002_002_3" depart="1" departLane = "1" departSpeed="11.180000"/>
	<vehicle id="car_11" type="car9" route="route001_001_1" depart="2" departLane = "2" departSpeed="11.180000"/>
	<vehicle id="car_12" type="car6" route="route001_002_2" depart="2" departLane = "2" departSpeed="11.180000"/>
	<vehicle id="car_13" type="car9" route="route001_002_1" depart="2" departLane = "2" departSpeed="11.180000"/>
	<vehicle id="car_14" type="car7" route="route002_002_2" depart="2" departLane = "2" departSpeed="11.180000"/>
	<vehicle id="car_15" type="car6" route="route001_002_2" depart="3" departLane = "2" departSpeed="11.180000"/>
	<vehicle id="car_16" type="car5" route="route002_001_3" depart="3" departLane = "1" departSpeed="11.180000"/>
	<vehicle id="car_17" type="car7" route="route002_002_2" depart="3" departLane = "1" departSpeed="11.180000"/>
	<vehicle id="car_18" type="car7" route="route001_001_1" depart="4" departLane = "0" departSpeed="11.180000"/>
	<vehicle id="car_19" type="car8" route="route001_002_2" depart="4" departLane = "2" departSpeed="11.180000"/>
	<vehicle id="car_20" type="car5" route="route002_001_4" depart="4" departLane = "1" departSpeed="11.180000"/>
	<vehicle id="car_21" type="car7" route="route001_001_1" depart="5" departLane = "2" departSpeed="11.180000"/>
	<vehicle id="car_22" type="car6" route="route002_001_3" depart="5" departLane = "1" departSpeed="11.180000"/>
	<vehicle id="car_23" type="car8" route="route001_002_1" depart="5" departLane = "2" departSpeed="11.180000"/>
	<vehicle id="car_24" type="car5" route="route002_001_3" depart="6" departLane = "2" departSpeed="11.180000"/>
	<vehicle id="car_25" type="car7" route="route001_002_1" depart="6" departLane = "1" departSpeed="11.180000"/>
	<vehicle id="car_26" type="car6" route="route002_002_2" depart="6" departLane = "1" departSpeed="11.180000"/>
	<vehicle id="car_27" type="car5" route="route001_001_1" depart="7" departLane = "0" departSpeed="11.180000"/>
	<vehicle id="car_28" type="car7" route="route001_002_2" depart="7" departLane = "2" departSpeed="11.180000"/>
	<vehicle id="car_29" type="car9" route="route002_002_2" depart="7" departLane = "2" departSpeed="11.180000"/>
	<vehicle id="car_30" type="car5" route="route002_002_3" depart="7" departLane = "0" departSpeed="11.180000"/>
	<vehicle id="car_31" type="car5" route="route001_001_1" depart="8" departLane = "1" departSpeed="11.180000"/>
	<vehicle id="car_32" type="car5" route="route001_002_2" depart="8" departLane = "0" departSpeed="11.180000"/>
	<vehicle id="car_33" type="car6" route="route002_001_4" depart="8" departLane = "2" departSpeed="11.180000"/>
	<vehicle id="car_34" type="car6" route="route001_002_1" depart="8" departLane = "1" departSpeed="11.180000"/>
	<vehicle id="car_35" type="car6" route="route002_002_2" depart="8" departLane = "1" departSpeed="11.180000"/>
	<vehicle id="car_36" type="car5" route="route002_002_3" depart="8" departLane = "2" departSpeed="11.180000"/>
	<vehicle id="car_37" type="car8" route="route001_001_1" depart="9" departLane = "2" departSpeed="11.180000"/>
	<vehicle id="car_38" type="car5" route="route001_002_2" depart="9" departLane = "0" departSpeed="11.180000"/>
	<vehicle id="car_39" type="car8" route="route002_001_4" depart="9" departLane = "2" departSpeed="11.180000"/>
	<vehicle id="car_40" type="car9" route="route002_002_2" depart="9" departLane = "2" departSpeed="11.180000"/>
	<vehicle id="car_41" type="car8" route="route001_001_4" depart="10" departLane = "1" departSpeed="11.180000"/>
	<vehicle id="car_42" type="car8" route="route001_002_2" depart="10" departLane = "0" departSpeed="11.180000"/>
	<vehicle id="car_43" type="car9" route="route002_001_3" depart="10" departLane = "2" departSpeed="11.180000"/>
	<vehicle id="car_44" type="car9" route="route002_001_4" depart="10" departLane = "0" departSpeed="11.180000"/>
	<vehicle id="car_45" type="car6" route="route002_002_3" depart="10" departLane = "0" departSpeed="11.180000"/>
	<vehicle id="car_46" type="car9" route="route001_001_1" depart="11" departLane = "2" departSpeed="11.180000"/>
	<vehicle id="car_47" type="car9" route="route002_001_3" depart="11" departLane = "2" departSpeed="11.180000"/>
	<vehicle id="car_48" type="car6" route="route002_002_2" depart="11" departLane = "0" departSpeed="11.180000"/>
	<vehicle id="car_49" type="car5" route="route001_001_4" depart="12" departLane = "0" departSpeed="11.180000"/>
	<vehicle id="car_50" type="car7" route="route001_002_2" depart="12" departLane = "0" departSpeed="11.180000"/>
	<vehicle id="car_51" type="car6" route="route001_002_1" depart="12" departLane = "0" departSpeed="11.180000"/>
	<vehicle id="car_52" type="car6" route="route001_001_4" depart="13" departLane = "2" departSpeed="11.180000"/>
	<vehicle id="car_53" type="car9" route="route002_001_3" depart="13" departLane = "2" departSpeed="11.180000"/>
	<vehicle id="car_54" type="car9" route="route002_001_4" depart="13" departLane = "0" departSpeed="11.180000"/>
	<vehicle id="car_55" type="car5" route="route002_002_2" depart="13" departLane = "2" departSpeed="11.180000"/>
	<vehicle id="car_56" type="car8" route="route002_002_3" depart="13" departLane = "1" departSpeed="11.180000"/>
	<vehicle id="car_57" type="car6" route="route001_001_1" depart="14" departLane = "0" departSpeed="11.180000"/>
	<vehicle id="car_58" type="car7" route="route002_002_2" depart="14" departLane = "0" departSpeed="11.180000"/>
	<vehicle id="car_59" type="car5" route="route002_002_3" depart="14" departLane = "2" departSpeed="11.180000"/>
	<vehicle id="car_60" type="car8" route="route001_002_2" depart="15" departLane = "2" departSpeed="11.180000"/>
	<vehicle id="car_61" type="car7" route="route002_001_3" depart="15" departLane = "0" departSpeed="11.180000"/>
	<vehicle id="car_62" type="car6" route="route002_001_4" depart="15" departLane = "2" departSpeed="11.180000"/>
	<vehicle id="car_63" type="car6" route="route002_002_3" depart="15" departLane = "2" departSpeed="11.180000"/>
	<vehicle id="car_64" type="car8" route="route001_001_1" depart="16" departLane = "0" departSpeed="11.180000"/>
	<vehicle id="car_65" type="car9" route="route001_002_2" depart="16" departLane = "0" departSpeed="11.180000"/>
	<vehicle id="car_66" type="car9" route="route002_001_3" depart="16" departLane = "1" departSpeed="11.180000"/>
	<vehicle id="car_67" type="car5" route="route002_001_4" depart="16" departLane = "0" departSpeed="11.180000"/>
	<vehicle id="car_68" type="car9" route="route002_002_2" depart="16" departLane = "1" departSpeed="11.180000"/>
	<vehicle id="car_69" type="car6" route="route001_001_1" depart="17" departLane = "1" departSpeed="11.180000"/>
	<vehicle id="car_70" type="car8" route="route001_002_2" depart="17" departLane = "0" departSpeed="11.180000"/>
	<vehicle id="car_71" type="car9" route="route002_001_3" depart="17" departLane = "0" departSpeed="11.180000"/>
	<vehicle id="car_72" type="car6" route="route001_002_1" depart="17" departLane = "0" departSpeed="11.180000"/>
	<vehicle id="car_73" type="car6" route="route001_001_1" depart="18" departLane = "1" departSpeed="11.180000"/>
	<vehicle id="car_74" type="car7" route="route002_002_2" depart="18" departLane = "0" departSpeed="11.180000"/>
	<vehicle id="car_75" type="car5" route="route002_002_3" depart="18" departLane = "0" departSpeed="11.180000"/>
	<vehicle id="car_76" type="car8" route="route001_001_1" depart="19" departLane = "1" departSpeed="11.180000"/>
	<vehicle id="car_77" type="car6" route="route002_001_3" depart="19" departLane = "0" departSpeed="11.180000"/>
	<vehicle id="car_78" type="car9" route="route002_001_4" depart="19" departLane = "2" departSpeed="11.180000"/>
	<vehicle id="car_79" type="car6" route="route001_002_1" depart="19" departLane = "1" departSpeed="11.180000"/>
	<vehicle id="car_80" type="car5" route="route001_001_4" depart="20" departLane = "0" departSpeed="11.180000"/>
	<vehicle id="car_81" type="car7" route="route001_001_1" depart="20" departLane = "0" departSpeed="11.180000"/>
	<vehicle id="car_82" type="car8" route="route001_002_2" depart="20" departLane = "0" departSpeed="11.180000"/>
	<vehicle id="car_83" type="car9" route="route002_001_4" depart="20" departLane = "0" departSpeed="11.180000"/>
	<vehicle id="car_84" type="car9" route="route002_002_3" depart="20" departLane = "0" departSpeed="11.180000"/>
	<vehicle id="car_85" type="car5" route="route002_001_3" depart="21" departLane = "1" departSpeed="11.180000"/>
	<vehicle id="car_86" type="car9" route="route001_002_1" depart="21" departLane = "0" departSpeed="11.180000"/>
	<vehicle id="car_87" type="car6" route="route002_002_3" depart="21" departLane = "2" departSpeed="11.180000"/>
	<vehicle id="car_88" type="car7" route="route001_002_1" depart="22" departLane = "0" departSpeed="11.180000"/>
	<vehicle id="car_89" type="car5" route="route001_001_4" depart="23" departLane = "2" departSpeed="11.180000"/>
	<vehicle id="car_90" type="car6" route="route001_002_1" depart="23" departLane = "1" departSpeed="11.180000"/>
	<vehicle id="car_91" type="car5" route="route002_002_2" depart="23" departLane = "1" departSpeed="11.180000"/>
	<vehicle id="car_92" type="car7" route="route002_002_3" depart="23" departLane = "0" departSpeed="11.180000"/>
	<vehicle id="car_93" type="car5" route="route001_001_4" depart="24" departLane = "0" departSpeed="11.180000"/>
	<vehicle id="car_94" type="car9" route="route001_001_1" depart="24" departLane = "1" departSpeed="11.180000"/>
	<vehicle id="car_95" type="car8" route="route001_002_2" depart="24" departLane = "0" departSpeed="11.180000"/>
	<vehicle id="car_96" type="car7" route="route002_001_3" depart="24" departLane = "1" departSpeed="11.180000"/>
	<vehicle id="car_97" type="car8" route="route001_002_1" depart="24" departLane = "2" departSpeed="11.180000"/>
	<vehicle id="car_98" type="car7" route="route002_002_2" depart="24" departLane = "1" departSpeed="11.180000"/>
	<vehicle id="car_99" type="car7" route="route002_002_3" depart="24" departLane = "1" departSpeed="11.180000"/>
	<vehicle id="car_100" type="car8" route="route001_002_2" depart="25" departLane = "0" departSpeed="11.180000"/>
	<vehicle id="car_101" type="car7" route="route002_001_3" depart="25" departLane = "2" departSpeed="11.180000"/>
	<vehicle id="car_102" type="car8" route="route002_001_4" depart="25" departLane = "2" departSpeed="11.180000"/>
	<vehicle id="car_103" type="car8" route="route001_002_1" depart="25" departLane = "2" departSpeed="11.180000"/>
	<vehicle id="car_104" type="car8" route="route002_002_2" depart="25" departLane = "2" departSpeed="11.180000"/>
	<vehicle id="car_105" type="car6" route="route002_001_4" depart="26" departLane = "0" departSpeed="11.180000"/>
	<vehicle id="car_106" type="car8" route="route002_002_3" depart="26" departLane = "2" departSpeed="11.180000"/>
	<vehicle id="car_107" type="car7" route="route001_001_4" depart="27" departLane = "0" departSpeed="11.180000"/>
	<vehicle id="car_108" type="car9" route="route001_002_2" depart="27" departLane = "2" departSpeed="11.180000"/>
	<vehicle id="car_109" type="car9" route="route002_001_4" depart="27" departLane = "2" departSpeed="11.180000"/>
	<vehicle id="car_110" type="car8" route="route001_002_1" depart="27" departLane = "2" departSpeed="11.180000"/>
	<vehicle id="car_111" type="car9" route="route001_001_4" depart="28" departLane = "2" departSpeed="11.180000"/>
	<vehicle id="car_112" type="car9" route="route001_001_1" depart="28" departLane = "1" departSpeed="11.180000"/>
	<vehicle id="car_113" type="car6" route="route001_002_2" depart="28" departLane = "0" departSpeed="11.180000"/>
	<vehicle id="car_114" type="car8" route="route001_002_1" depart="28" departLane = "1" departSpeed="11.180000"/>
	<vehicle id="car_115" type="car6" route="route002_002_2" depart="28" departLane = "0" departSpeed="11.180000"/>
	<vehicle id="car_116" type="car5" route="route001_001_4" depart="29" departLane = "1" departSpeed="11.180000"/>
	<vehicle id="car_117" type="car8" route="route001_001_1" depart="29" departLane = "1" departSpeed="11.180000"/>
	<vehicle id="car_118" type="car6" route="route002_001_3" depart="29" departLane = "1" departSpeed="11.180000"/>
	<vehicle id="car_119" type="car7" route="route002_001_4" depart="29" departLane = "0" departSpeed="11.180000"/>
	<vehicle id="car_120" type="car9" route="route001_002_2" depart="30" departLane = "2" departSpeed="11.180000"/>
	<vehicle id="car_121" type="car6" route="route002_001_4" depart="30" departLane = "0" departSpeed="11.180000"/>
	<vehicle id="car_122" type="car8" route="route002_002_2" depart="30" departLane = "1" departSpeed="11.180000"/>
	<vehicle id="car_123" type="car7" route="route001_002_2" depart="31" departLane = "1" departSpeed="11.180000"/>
	<vehicle id="car_124" type="car7" route="route002_001_3" depart="31" departLane = "1" departSpeed="11.180000"/>
	<vehicle id="car_125" type="car7" route="route001_002_1" depart="31" departLane = "1" departSpeed="11.180000"/>
	<vehicle id="car_126" type="car6" route="route002_002_2" depart="31" departLane = "2" departSpeed="11.180000"/>
	<vehicle id="car_127" type="car8" route="route001_001_4" depart="32" departLane = "1" departSpeed="11.180000"/>
	<vehicle id="car_128" type="car5" route="route001_001_1" depart="32" departLane = "0" departSpeed="11.180000"/>
	<vehicle id="car_129" type="car9" route="route002_002_3" depart="32" departLane = "1" departSpeed="11.180000"/>
	<vehicle id="car_130" type="car5" route="route001_002_2" depart="33" departLane = "1" departSpeed="11.180000"/>
	<vehicle id="car_131" type="car5" route="route002_001_4" depart="33" departLane = "1" departSpeed="11.180000"/>
	<vehicle id="car_132" type="car7" route="route001_002_1" depart="33" departLane = "2" departSpeed="11.180000"/>
	<vehicle id="car_133" type="car8" route="route001_002_2" depart="34" departLane = "1" departSpeed="11.180000"/>
	<vehicle id="car_134" type="car8" route="route001_002_1" depart="34" departLane = "1" departSpeed="11.180000"/>
	<vehicle id="car_135" type="car6" route="route002_001_4" depart="35" departLane = "2" departSpeed="11.180000"/>
	<vehicle id="car_136" type="car9" route="route002_002_3" depart="35" departLane = "1" departSpeed="11.180000"/>
	<vehicle id="car_137" type="car5" route="route001_001_4" depart="36" departLane = "1" departSpeed="11.180000"/>
	<vehicle id="car_138" type="car6" route="route001_002_2" depart="36" departLane = "1" departSpeed="11.180000"/>
	<vehicle id="car_139" type="car7" route="route002_001_3" depart="36" departLane = "2" departSpeed="11.180000"/>
	<vehicle id="car_140" type="car8" route="route001_002_1" depart="36" departLane = "1" departSpeed="11.180000"/>
	<vehicle id="car_141" type="car6" route="route002_002_2" depart="36" departLane = "2" departSpeed="11.180000"/>
	<vehicle id="car_142" type="car5" route="route002_002_3" depart="36" departLane = "2" departSpeed="11.180000"/>
	<vehicle id="car_143" type="car7" route="route001_001_1" depart="37" departLane = "2" departSpeed="11.180000"/>
	<vehicle id="car_144" type="car8" route="route001_002_2" depart="37" departLane = "2" departSpeed="11.180000"/>
	<vehicle id="car_145" type="car8" route="route002_001_4" depart="37" departLane = "0" departSpeed="11.180000"/>
	<vehicle id="car_146" type="car8" route="route002_002_2" depart="37" departLane = "2" departSpeed="11.180000"/>
	<vehicle id="car_147" type="car6" route="route002_002_3" depart="37" departLane = "2" departSpeed="11.180000"/>
	<vehicle id="car_148" type="car9" route="route001_002_2" depart="38" departLane = "1" departSpeed="11.180000"/>
	<vehicle id="car_149" type="car7" route="route002_001_3" depart="38" departLane = "2" departSpeed="11.180000"/>
	<vehicle id="car_150" type="car8" route="route001_002_1" depart="38" departLane = "0" departSpeed="11.180000"/>
	<vehicle id="car_151" type="car9" route="route002_002_3" depart="38" departLane = "2" departSpeed="11.180000"/>
	<vehicle id="car_152" type="car7" route="route001_001_1" depart="39" departLane = "0" departSpeed="11.180000"/>
	<vehicle id="car_153" type="car8" route="route001_002_2" depart="39" departLane = "1" departSpeed="11.180000"/>
	<vehicle id="car_154" type="car8" route="route002_001_4" depart="39" departLane = "2" departSpeed="11.180000"/>
	<vehicle id="car_155" type="car5" route="route001_002_1" depart="39" departLane = "1" departSpeed="11.180000"/>
	<vehicle id="car_156" type="car5" route="route002_002_2" depart="39" departLane = "0" departSpeed="11.180000"/>
	<vehicle id="car_157" type="car7" route="route002_002_3" depart="39" departLane = "2" departSpeed="11.180000"/>
	<vehicle id="car_158" type="car5" route="route001_001_4" depart="40" departLane = "2" departSpeed="11.180000"/>
	<vehicle id="car_159" type="car9" route="route002_001_4" depart="40" departLane = "0" departSpeed="11.180000"/>
	<vehicle id="car_160" type="car6" route="route002_002_2" depart="40" departLane = "1" departSpeed="11.180000"/>
	<vehicle id="car_161" type="car5" route="route002_002_3" depart="40" departLane = "0" departSpeed="11.180000"/>
	<vehicle id="car_162" type="car7" route="route001_001_1" depart="41" departLane = "0" departSpeed="11.180000"/>
	<vehicle id="car_163" type="car7" route="route002_001_3" depart="41" departLane = "2" departSpeed="11.180000"/>
	<vehicle id="car_164" type="car8" route="route001_002_1" depart="41" departLane = "2" departSpeed="11.180000"/>
	<vehicle id="car_165" type="car6" route="route002_002_2" depart="41" departLane = "1" departSpeed="11.180000"/>
	<vehicle id="car_166" type="car9" route="route001_001_4" depart="42" departLane = "2" departSpeed="11.180000"/>
	<vehicle id="car_167" type="car9" route="route001_001_1" depart="42" departLane = "0" departSpeed="11.180000"/>
	<vehicle id="car_168" type="car8" route="route001_002_2" depart="42" departLane = "0" departSpeed="11.180000"/>
	<vehicle id="car_169" type="car5" route="route002_001_3" depart="42" departLane = "1" departSpeed="11.180000"/>
	<vehicle id="car_170" type="car5" route="route002_002_2" depart="42" departLane = "2" departSpeed="11.180000"/>
	<vehicle id="car_171" type="car6" route="route002_002_3" depart="42" departLane = "0" departSpeed="11.180000"/>
	<vehicle id="car_172" type="car5" route="route001_001_4" depart="43" departLane = "1" departSpeed="11.180000"/>
	<vehicle id="car_173" type="car8" route="route001_002_1" depart="43" departLane = "2" departSpeed="11.180000"/>
	<vehicle id="car_174" type="car5" route="route002_002_3" depart="43" departLane = "2" departSpeed="11.180000"/>
	<vehicle id="car_175" type="car8" route="route001_001_1" depart="44" departLane = "1" departSpeed="11.180000"/>
	<vehicle id="car_176" type="car6" route="route002_001_3" depart="44" departLane = "1" departSpeed="11.180000"/>
	<vehicle id="car_177" type="car9" route="route002_001_4" depart="44" departLane = "1" departSpeed="11.180000"/>
	<vehicle id="car_178" type="car9" route="route001_002_2" depart="45" departLane = "0" departSpeed="11.180000"/>
	<vehicle id="car_179" type="car5" route="route002_002_2" depart="45" departLane = "2" departSpeed="11.180000"/>
	<vehicle id="car_180" type="car6" route="route002_002_3" depart="45" departLane = "2" departSpeed="11.180000"/>
	<vehicle id="car_181" type="car7" route="route001_001_4" depart="46" departLane = "1" departSpeed="11.180000"/>
	<vehicle id="car_182" type="car6" route="route001_001_1" depart="46" departLane = "2" departSpeed="11.180000"/>
	<vehicle id="car_183" type="car7" route="route002_001_3" depart="46" departLane = "0" departSpeed="11.180000"/>
	<vehicle id="car_184" type="car5" route="route001_002_1" depart="46" departLane = "1" departSpeed="11.180000"/>
	<vehicle id="car_185" type="car5" route="route002_002_3" depart="46" departLane = "2" departSpeed="11.180000"/>
	<vehicle id="car_186" type="car7" route="route001_002_2" depart="47" departLane = "0" departSpeed="11.180000"/>
	<vehicle id="car_187" type="car6" route="route002_001_4" depart="47" departLane = "2" departSpeed="11.180000"/>
	<vehicle id="car_188" type="car8" route="route002_002_3" depart="47" departLane = "1" departSpeed="11.180000"/>
	<vehicle id="car_189" type="car5" route="route002_002_3" depart="48" departLane = "1" departSpeed="11.180000"/>
	<vehicle id="car_190" type="car6" route="route001_001_1" depart="49" departLane = "1" departSpeed="11.180000"/>
	<vehicle id="car_191" type="car9" route="route001_002_2" depart="49" departLane = "1" departSpeed="11.180000"/>
	<vehicle id="car_192" type="car6" route="route002_001_3" depart="49" departLane = "1" departSpeed="11.180000"/>
	<vehicle id="car_193" type="car8" route="route002_001_4" depart="49" departLane = "1" departSpeed="11.180000"/>
	<vehicle id="car_194" type="car9" route="route002_002_2" depart="49" departLane = "0" departSpeed="11.180000"/>
	<vehicle id="car_195" type="car5" route="route002_002_3" depart="49" departLane = "2" departSpeed="11.180000"/>
	<vehicle id="car_196" type="car9" route="route001_001_4" depart="50" departLane = "2" departSpeed="11.180000"/>
	<vehicle id="car_197" type="car7" route="route002_002_2" depart="50" departLane = "1" departSpeed="11.180000"/>
	<vehicle id="car_198" type="car9" route="route002_001_3" depart="51" departLane = "1" departSpeed="11.180000"/>
	<vehicle id="car_199" type="car7" route="route002_001_4" depart="51" departLane = "2" departSpeed="11.180000"/>
	<vehicle id="car_200" type="car5" route="route002_002_2" depart="51" departLane = "2" departSpeed="11.180000"/>
	<vehicle id="car_201" type="car7" route="route001_001_1" depart="52" departLane = "2" departSpeed="11.180000"/>
	<vehicle id="car_202" type="car5" route="route001_002_2" depart="52" departLane = "1" departSpeed="11.180000"/>
	<vehicle id="car_203" type="car5" route="route002_001_3" depart="52" departLane = "0" departSpeed="11.180000"/>
	<vehicle id="car_204" type="car5" route="route002_002_2" depart="52" departLane = "2" departSpeed="11.180000"/>
	<vehicle id="car_205" type="car9" route="route001_001_4" depart="53" departLane = "0" departSpeed="11.180000"/>
	<vehicle id="car_206" type="car9" route="route001_001_1" depart="53" departLane = "2" departSpeed="11.180000"/>
	<vehicle id="car_207" type="car9" route="route001_002_2" depart="53" departLane = "1" departSpeed="11.180000"/>
	<vehicle id="car_208" type="car8" route="route001_002_1" depart="53" departLane = "1" departSpeed="11.180000"/>
	<vehicle id="car_209" type="car6" route="route002_001_3" depart="54" departLane = "2" departSpeed="11.180000"/>
	<vehicle id="car_210" type="car7" route="route002_002_2" depart="54" departLane = "2" departSpeed="11.180000"/>
	<vehicle id="car_211" type="car9" route="route001_001_1" depart="55" departLane = "1" departSpeed="11.180000"/>
	<vehicle id="car_212" type="car6" route="route001_002_2" depart="55" departLane = "2" departSpeed="11.180000"/>
	<vehicle id="car_213" type="car5" route="route002_001_3" depart="55" departLane = "0" departSpeed="11.180000"/>
	<vehicle id="car_214" type="car8" route="route002_002_2" depart="56" departLane = "0" departSpeed="11.180000"/>
	<vehicle id="car_215" type="car7" route="route002_002_3" depart="56" departLane = "1" departSpeed="11.180000"/>
	<vehicle id="car_216" type="car8" route="route001_002_2" depart="57" departLane = "2" departSpeed="11.180000"/>
	<vehicle id="car_217" type="car7" route="route001_002_1" depart="57" departLane = "2" departSpeed="11.180000"/>
	<vehicle id="car_218" type="car7" route="route002_001_3" depart="58" departLane = "2" departSpeed="11.180000"/>
	<vehicle id="car_219" type="car8" route="route002_001_4" depart="58" departLane = "1" departSpeed="11.180000"/>
	<vehicle id="car_220" type="car7" route="route001_002_1" depart="58" departLane = "0" departSpeed="11.180000"/>
	<vehicle id="car_221" type="car7" route="route002_002_2" depart="58" departLane = "0" departSpeed="11.180000"/>
	<vehicle id="car_222" type="car6" route="route002_002_3" depart="58" departLane = "2" departSpeed="11.180000"/>
	<vehicle id="car_223" type="car9" route="route001_001_1" depart="59" departLane = "0" departSpeed="11.180000"/>
	<vehicle id="car_224" type="car8" route="route001_002_1" depart="59" departLane = "1" departSpeed="11.180000"/>
	<vehicle id="car_225" type="car9" route="route002_002_3" depart="59" departLane = "2" departSpeed="11.180000"/>
	<vehicle id="car_226" type="car5" route="route001_001_4" depart="60" departLane = "2" departSpeed="11.180000"/>
	<vehicle id="car_227" type="car5" route="route001_001_1" depart="60" departLane = "0" departSpeed="11.180000"/>
	<vehicle id="car_228" type="car9" route="route001_002_2" depart="60" departLane = "1" departSpeed="11.180000"/>
	<vehicle id="car_229" type="car8" route="route001_002_1" depart="60" departLane = "2" departSpeed="11.180000"/>
	<vehicle id="car_230" type="car9" route="route001_001_4" depart="61" departLane = "2" departSpeed="11.180000"/>
	<vehicle id="car_231" type="car7" route="route001_001_1" depart="61" departLane = "1" departSpeed="11.180000"/>
	<vehicle id="car_232" type="car6" route="route002_001_3" depart="61" departLane = "0" departSpeed="11.180000"/>
	<vehicle id="car_233" type="car8" route="route002_001_4" depart="61" departLane = "2" departSpeed="11.180000"/>
	<vehicle id="car_234" type="car6" route="route002_002_3" depart="61" departLane = "2" departSpeed="11.180000"/>
	<vehicle id="car_235" type="car7" route="route001_001_4" depart="62" departLane = "2" departSpeed="11.180000"/>
	<vehicle id="car_236" type="car9" route="route001_001_1" depart="62" departLane = "0" departSpeed="11.180000"/>
	<vehicle id="car_237" type="car9" route="route001_002_2" depart="62" departLane = "0" departSpeed="11.180000"/>
	<vehicle id="car_238" type="car9" route="route002_001_4" depart="62" departLane = "2" departSpeed="11.180000"/>
	<vehicle id="car_239" type="car7" route="route001_002_1" depart="62" departLane = "2" departSpeed="11.180000"/>
	<vehicle id="car_240" type="car8" route="route002_002_3" depart="62" departLane = "1" departSpeed="11.180000"/>
	<vehicle id="car_241" type="car5" route="route001_001_4" depart="63" departLane = "2" departSpeed="11.180000"/>
	<vehicle id="car_242" type="car7" route="route002_001_4" depart="63" departLane = "1" departSpeed="11.180000"/>
	<vehicle id="car_243" type="car6" route="route002_002_3" depart="63" departLane = "2" departSpeed="11.180000"/>
	<vehicle id="car_244" type="car5" route="route001_001_4" depart="64" departLane = "0" departSpeed="11.180000"/>
	<vehicle id="car_245" type="car7" route="route002_002_2" depart="64" departLane = "0" departSpeed="11.180000"/>
	<vehicle id="car_246" type="car6" route="route001_001_4" depart="65" departLane = "1" departSpeed="11.180000"/>
	<vehicle id="car_247" type="car6" route="route001_001_1" depart="65" departLane = "1" departSpeed="11.180000"/>
	<vehicle id="car_248" type="car9" route="route001_002_2" depart="65" departLane = "2" departSpeed="11.180000"/>
	<vehicle id="car_249" type="car6" route="route002_001_4" depart="65" departLane = "2" departSpeed="11.180000"/>
	<vehicle id="car_250" type="car7" route="route001_001_4" depart="66" departLane = "0" departSpeed="11.180000"/>
	<vehicle id="car_251" type="car5" route="route001_001_1" depart="66" departLane = "0" departSpeed="11.180000"/>
	<vehicle id="car_252" type="car7" route="route001_002_2" depart="66" departLane = "2" departSpeed="11.180000"/>
	<vehicle id="car_253" type="car5" route="route001_002_1" depart="66" departLane = "1" departSpeed="11.180000"/>
	<vehicle id="car_254" type="car5" route="route002_002_3" depart="66" departLane = "0" departSpeed="11.180000"/>