<?xml version="1.0" encoding="UTF-8"?>

<!-- generated on 03/28/20 03:45:38 by Eclipse SUMO netedit Version 1.3.1
<configuration xmlns:xsi="http://www.w3.org/2001/XMLSchema-instance" xsi:noNamespaceSchemaLocation="http://sumo.dlr.de/xsd/netconvertConfiguration.xsd">

    <input>
        <sumo-net-file value="D:\Google%20Drive\NYU\V2X\UDTA\Roadrunner_v3\data\lane2by2.net.xml"/>
    </input>

    <output>
        <output-file value="D:\Google%20Drive\NYU\V2X\UDTA\Roadrunner_v3\data\lane2by2.net.xml"/>
    </output>

    <processing>
        <geometry.max-grade.fix value="false"/>
        <offset.disable-normalization value="true"/>
        <opposites.guess.fix-lengths value="true"/>
        <lefthand value="false"/>
    </processing>

    <junctions>
        <no-turnarounds value="true"/>
        <junctions.corner-detail value="5"/>
        <junctions.limit-turn-speed value="5.5"/>
        <rectangular-lane-cut value="false"/>
    </junctions>

    <pedestrian>
        <walkingareas value="false"/>
    </pedestrian>

</configuration>
-->

<net version="1.3" junctionCornerDetail="5" limitTurnSpeed="5.50" xmlns:xsi="http://www.w3.org/2001/XMLSchema-instance" xsi:noNamespaceSchemaLocation="http://sumo.dlr.de/xsd/net_file.xsd">

    <location netOffset="0.00,0.00" convBoundary="0.00,0.00,600.00,600.00" origBoundary="0.00,0.00,600.00,600.00" projParameter="!"/>

    <edge id=":001_001_0" function="internal">
        <lane id=":001_001_0_0" index="0" speed="6.51" length="9.03" width="3.20" shape="192.00,213.60 191.65,211.15 190.60,209.40 188.85,208.35 186.40,208.00"/>
    </edge>
    <edge id=":001_001_1" function="internal">
        <lane id=":001_001_1_0" index="0" speed="13.89" length="27.20" width="3.20" shape="192.00,213.60 192.00,186.40"/>
    </edge>
    <edge id=":001_001_2" function="internal">
        <lane id=":001_001_2_0" index="0" speed="11.87" length="6.41" width="3.20" shape="192.00,213.60 193.83,207.45"/>
    </edge>
    <edge id=":001_001_3" function="internal">
        <lane id=":001_001_3_0" index="0" speed="8.00" length="5.93" width="3.20" shape="195.20,213.60 194.65,209.75 193.60,208.00"/>
    </edge>
    <edge id=":001_001_4" function="internal">
        <lane id=":001_001_4_0" index="0" speed="13.89" length="27.20" width="3.20" shape="195.20,213.60 195.20,186.40"/>
    </edge>
    <edge id=":001_001_5" function="internal">
        <lane id=":001_001_5_0" index="0" speed="11.07" length="11.48" width="3.20" shape="195.20,213.60 196.86,207.07 199.64,203.23"/>
    </edge>
    <edge id=":001_001_6" function="internal">
        <lane id=":001_001_6_0" index="0" speed="9.26" length="6.96" width="3.20" shape="198.40,213.60 197.65,208.35 196.80,206.93"/>
    </edge>
    <edge id=":001_001_7" function="internal">
        <lane id=":001_001_7_0" index="0" speed="13.89" length="27.20" width="3.20" shape="198.40,213.60 198.40,186.40"/>
    </edge>
    <edge id=":001_001_8" function="internal">
        <lane id=":001_001_8_0" index="0" speed="10.10" length="5.96" width="3.20" shape="198.40,213.60 199.77,208.20 200.00,207.88"/>
    </edge>
    <edge id=":001_001_36" function="internal">
        <lane id=":001_001_36_0" index="0" speed="11.87" length="26.08" width="3.20" shape="193.83,207.45 194.13,206.48 199.47,199.47 206.48,194.13 213.60,192.00"/>
    </edge>
    <edge id=":001_001_37" function="internal">
        <lane id=":001_001_37_0" index="0" speed="8.00" length="8.26" width="3.20" shape="193.60,208.00 193.00,207.00 190.25,205.35 186.40,204.80"/>
    </edge>
    <edge id=":001_001_38" function="internal">
        <lane id=":001_001_38_0" index="0" speed="11.07" length="16.62" width="3.20" shape="199.64,203.23 201.15,201.15 207.07,196.86 213.60,195.20"/>
    </edge>
    <edge id=":001_001_39" function="internal">
        <lane id=":001_001_39_0" index="0" speed="9.26" length="12.40" width="3.20" shape="196.80,206.93 195.40,204.60 191.65,202.35 186.40,201.60"/>
    </edge>
    <edge id=":001_001_40" function="internal">
        <lane id=":001_001_40_0" index="0" speed="10.10" length="17.25" width="3.20" shape="200.00,207.88 203.31,203.31 208.20,199.77 213.60,198.40"/>
    </edge>
    <edge id=":001_001_9" function="internal">
        <lane id=":001_001_9_0" index="0" speed="6.51" length="9.03" width="3.20" shape="213.60,208.00 211.15,208.35 209.40,209.40 208.35,211.15 208.00,213.60"/>
    </edge>
    <edge id=":001_001_10" function="internal">
        <lane id=":001_001_10_0" index="0" speed="13.89" length="27.20" width="3.20" shape="213.60,208.00 186.40,208.00"/>
    </edge>
    <edge id=":001_001_11" function="internal">
        <lane id=":001_001_11_0" index="0" speed="11.87" length="32.49" width="3.20" shape="213.60,208.00 206.48,205.88 199.47,200.53 194.13,193.52 192.00,186.40"/>
    </edge>
    <edge id=":001_001_12" function="internal">
        <lane id=":001_001_12_0" index="0" speed="8.00" length="14.19" width="3.20" shape="213.60,204.80 209.75,205.35 207.00,207.00 205.35,209.75 204.80,213.60"/>
    </edge>
    <edge id=":001_001_13" function="internal">
        <lane id=":001_001_13_0" index="0" speed="13.89" length="27.20" width="3.20" shape="213.60,204.80 186.40,204.80"/>
    </edge>
    <edge id=":001_001_14" function="internal">
        <lane id=":001_001_14_0" index="0" speed="11.07" length="28.10" width="3.20" shape="213.60,204.80 207.07,203.14 201.15,198.85 196.86,192.93 195.20,186.40"/>
    </edge>
    <edge id=":001_001_15" function="internal">
        <lane id=":001_001_15_0" index="0" speed="9.26" length="19.35" width="3.20" shape="213.60,201.60 208.35,202.35 204.60,204.60 202.35,208.35 201.60,213.60"/>
    </edge>
    <edge id=":001_001_16" function="internal">
        <lane id=":001_001_16_0" index="0" speed="13.89" length="27.20" width="3.20" shape="213.60,201.60 186.40,201.60"/>
    </edge>
    <edge id=":001_001_17" function="internal">
        <lane id=":001_001_17_0" index="0" speed="10.10" length="23.22" width="3.20" shape="213.60,201.60 208.20,200.23 203.31,196.69 199.77,191.80 198.40,186.40"/>
    </edge>
    <edge id=":001_001_18" function="internal">
        <lane id=":001_001_18_0" index="0" speed="6.51" length="9.03" width="3.20" shape="208.00,186.40 208.35,188.85 209.40,190.60 211.15,191.65 213.60,192.00"/>
    </edge>
    <edge id=":001_001_19" function="internal">
        <lane id=":001_001_19_0" index="0" speed="13.89" length="27.20" width="3.20" shape="208.00,186.40 208.00,213.60"/>
    </edge>
    <edge id=":001_001_20" function="internal">
        <lane id=":001_001_20_0" index="0" speed="11.87" length="6.41" width="3.20" shape="208.00,186.40 206.17,192.55"/>
    </edge>
    <edge id=":001_001_21" function="internal">
        <lane id=":001_001_21_0" index="0" speed="8.00" length="5.93" width="3.20" shape="204.80,186.40 205.35,190.25 206.40,192.00"/>
    </edge>
    <edge id=":001_001_22" function="internal">
        <lane id=":001_001_22_0" index="0" speed="13.89" length="27.20" width="3.20" shape="204.80,186.40 204.80,213.60"/>
    </edge>
    <edge id=":001_001_23" function="internal">
        <lane id=":001_001_23_0" index="0" speed="11.07" length="11.48" width="3.20" shape="204.80,186.40 203.14,192.93 200.36,196.77"/>
    </edge>
    <edge id=":001_001_24" function="internal">
        <lane id=":001_001_24_0" index="0" speed="9.26" length="6.96" width="3.20" shape="201.60,186.40 202.35,191.65 203.20,193.07"/>
    </edge>
    <edge id=":001_001_25" function="internal">
        <lane id=":001_001_25_0" index="0" speed="13.89" length="27.20" width="3.20" shape="201.60,186.40 201.60,213.60"/>
    </edge>
    <edge id=":001_001_26" function="internal">
        <lane id=":001_001_26_0" index="0" speed="10.10" length="5.96" width="3.20" shape="201.60,186.40 200.23,191.80 200.00,192.12"/>
    </edge>
    <edge id=":001_001_41" function="internal">
        <lane id=":001_001_41_0" index="0" speed="11.87" length="26.08" width="3.20" shape="206.17,192.55 205.88,193.52 200.53,200.53 193.52,205.88 186.40,208.00"/>
    </edge>
    <edge id=":001_001_42" function="internal">
        <lane id=":001_001_42_0" index="0" speed="8.00" length="8.26" width="3.20" shape="206.40,192.00 207.00,193.00 209.75,194.65 213.60,195.20"/>
    </edge>
    <edge id=":001_001_43" function="internal">
        <lane id=":001_001_43_0" index="0" speed="11.07" length="16.62" width="3.20" shape="200.36,196.77 198.85,198.85 192.93,203.14 186.40,204.80"/>
    </edge>
    <edge id=":001_001_44" function="internal">
        <lane id=":001_001_44_0" index="0" speed="9.26" length="12.40" width="3.20" shape="203.20,193.07 204.60,195.40 208.35,197.65 213.60,198.40"/>
    </edge>
    <edge id=":001_001_45" function="internal">
        <lane id=":001_001_45_0" index="0" speed="10.10" length="17.25" width="3.20" shape="200.00,192.12 196.69,196.69 191.80,200.23 186.40,201.60"/>
    </edge>
    <edge id=":001_001_27" function="internal">
        <lane id=":001_001_27_0" index="0" speed="6.51" length="9.03" width="3.20" shape="186.40,192.00 188.85,191.65 190.60,190.60 191.65,188.85 192.00,186.40"/>
    </edge>
    <edge id=":001_001_28" function="internal">
        <lane id=":001_001_28_0" index="0" speed="13.89" length="27.20" width="3.20" shape="186.40,192.00 213.60,192.00"/>
    </edge>
    <edge id=":001_001_29" function="internal">
        <lane id=":001_001_29_0" index="0" speed="11.87" length="32.49" width="3.20" shape="186.40,192.00 193.52,194.13 200.53,199.47 205.88,206.48 208.00,213.60"/>
    </edge>
    <edge id=":001_001_30" function="internal">
        <lane id=":001_001_30_0" index="0" speed="8.00" length="14.19" width="3.20" shape="186.40,195.20 190.25,194.65 193.00,193.00 194.65,190.25 195.20,186.40"/>
    </edge>
    <edge id=":001_001_31" function="internal">
        <lane id=":001_001_31_0" index="0" speed="13.89" length="27.20" width="3.20" shape="186.40,195.20 213.60,195.20"/>
    </edge>
    <edge id=":001_001_32" function="internal">
        <lane id=":001_001_32_0" index="0" speed="11.07" length="28.10" width="3.20" shape="186.40,195.20 192.93,196.86 198.85,201.15 203.14,207.07 204.80,213.60"/>
    </edge>
    <edge id=":001_001_33" function="internal">
        <lane id=":001_001_33_0" index="0" speed="9.26" length="19.35" width="3.20" shape="186.40,198.40 191.65,197.65 195.40,195.40 197.65,191.65 198.40,186.40"/>
    </edge>
    <edge id=":001_001_34" function="internal">
        <lane id=":001_001_34_0" index="0" speed="13.89" length="27.20" width="3.20" shape="186.40,198.40 213.60,198.40"/>
    </edge>
    <edge id=":001_001_35" function="internal">
        <lane id=":001_001_35_0" index="0" speed="10.10" length="23.22" width="3.20" shape="186.40,198.40 191.80,199.77 196.69,203.31 200.23,208.20 201.60,213.60"/>
    </edge>
    <edge id=":001_002_0" function="internal">
        <lane id=":001_002_0_0" index="0" speed="6.51" length="9.03" width="3.20" shape="192.00,413.60 191.65,411.15 190.60,409.40 188.85,408.35 186.40,408.00"/>
    </edge>
    <edge id=":001_002_1" function="internal">
        <lane id=":001_002_1_0" index="0" speed="13.89" length="27.20" width="3.20" shape="192.00,413.60 192.00,386.40"/>
    </edge>
    <edge id=":001_002_2" function="internal">
        <lane id=":001_002_2_0" index="0" speed="11.87" length="6.41" width="3.20" shape="192.00,413.60 193.83,407.45"/>
    </edge>
    <edge id=":001_002_3" function="internal">
        <lane id=":001_002_3_0" index="0" speed="8.00" length="5.93" width="3.20" shape="195.20,413.60 194.65,409.75 193.60,408.00"/>
    </edge>
    <edge id=":001_002_4" function="internal">
        <lane id=":001_002_4_0" index="0" speed="13.89" length="27.20" width="3.20" shape="195.20,413.60 195.20,386.40"/>
    </edge>
    <edge id=":001_002_5" function="internal">
        <lane id=":001_002_5_0" index="0" speed="11.07" length="11.48" width="3.20" shape="195.20,413.60 196.86,407.07 199.64,403.23"/>
    </edge>
    <edge id=":001_002_6" function="internal">
        <lane id=":001_002_6_0" index="0" speed="9.26" length="6.96" width="3.20" shape="198.40,413.60 197.65,408.35 196.80,406.93"/>
    </edge>
    <edge id=":001_002_7" function="internal">
        <lane id=":001_002_7_0" index="0" speed="13.89" length="27.20" width="3.20" shape="198.40,413.60 198.40,386.40"/>
    </edge>
    <edge id=":001_002_8" function="internal">
        <lane id=":001_002_8_0" index="0" speed="10.10" length="5.96" width="3.20" shape="198.40,413.60 199.77,408.20 200.00,407.88"/>
    </edge>
    <edge id=":001_002_36" function="internal">
        <lane id=":001_002_36_0" index="0" speed="11.87" length="26.08" width="3.20" shape="193.83,407.45 194.13,406.48 199.47,399.47 206.48,394.13 213.60,392.00"/>
    </edge>
    <edge id=":001_002_37" function="internal">
        <lane id=":001_002_37_0" index="0" speed="8.00" length="8.26" width="3.20" shape="193.60,408.00 193.00,407.00 190.25,405.35 186.40,404.80"/>
    </edge>
    <edge id=":001_002_38" function="internal">
        <lane id=":001_002_38_0" index="0" speed="11.07" length="16.62" width="3.20" shape="199.64,403.23 201.15,401.15 207.07,396.86 213.60,395.20"/>
    </edge>
    <edge id=":001_002_39" function="internal">
        <lane id=":001_002_39_0" index="0" speed="9.26" length="12.40" width="3.20" shape="196.80,406.93 195.40,404.60 191.65,402.35 186.40,401.60"/>
    </edge>
    <edge id=":001_002_40" function="internal">
        <lane id=":001_002_40_0" index="0" speed="10.10" length="17.25" width="3.20" shape="200.00,407.88 203.31,403.31 208.20,399.77 213.60,398.40"/>
    </edge>
    <edge id=":001_002_9" function="internal">
        <lane id=":001_002_9_0" index="0" speed="6.51" length="9.03" width="3.20" shape="213.60,408.00 211.15,408.35 209.40,409.40 208.35,411.15 208.00,413.60"/>
    </edge>
    <edge id=":001_002_10" function="internal">
        <lane id=":001_002_10_0" index="0" speed="13.89" length="27.20" width="3.20" shape="213.60,408.00 186.40,408.00"/>
    </edge>
    <edge id=":001_002_11" function="internal">
        <lane id=":001_002_11_0" index="0" speed="11.87" length="32.49" width="3.20" shape="213.60,408.00 206.48,405.88 199.47,400.53 194.13,393.52 192.00,386.40"/>
    </edge>
    <edge id=":001_002_12" function="internal">
        <lane id=":001_002_12_0" index="0" speed="8.00" length="14.19" width="3.20" shape="213.60,404.80 209.75,405.35 207.00,407.00 205.35,409.75 204.80,413.60"/>
    </edge>
    <edge id=":001_002_13" function="internal">
        <lane id=":001_002_13_0" index="0" speed="13.89" length="27.20" width="3.20" shape="213.60,404.80 186.40,404.80"/>
    </edge>
    <edge id=":001_002_14" function="internal">
        <lane id=":001_002_14_0" index="0" speed="11.07" length="28.10" width="3.20" shape="213.60,404.80 207.07,403.14 201.15,398.85 196.86,392.93 195.20,386.40"/>
    </edge>
    <edge id=":001_002_15" function="internal">
        <lane id=":001_002_15_0" index="0" speed="9.26" length="19.35" width="3.20" shape="213.60,401.60 208.35,402.35 204.60,404.60 202.35,408.35 201.60,413.60"/>
    </edge>
    <edge id=":001_002_16" function="internal">
        <lane id=":001_002_16_0" index="0" speed="13.89" length="27.20" width="3.20" shape="213.60,401.60 186.40,401.60"/>
    </edge>
    <edge id=":001_002_17" function="internal">
        <lane id=":001_002_17_0" index="0" speed="10.10" length="23.22" width="3.20" shape="213.60,401.60 208.20,400.23 203.31,396.69 199.77,391.80 198.40,386.40"/>
    </edge>
    <edge id=":001_002_18" function="internal">
        <lane id=":001_002_18_0" index="0" speed="6.51" length="9.03" width="3.20" shape="208.00,386.40 208.35,388.85 209.40,390.60 211.15,391.65 213.60,392.00"/>
    </edge>
    <edge id=":001_002_19" function="internal">
        <lane id=":001_002_19_0" index="0" speed="13.89" length="27.20" width="3.20" shape="208.00,386.40 208.00,413.60"/>
    </edge>
    <edge id=":001_002_20" function="internal">
        <lane id=":001_002_20_0" index="0" speed="11.87" length="6.41" width="3.20" shape="208.00,386.40 206.17,392.55"/>
    </edge>
    <edge id=":001_002_21" function="internal">
        <lane id=":001_002_21_0" index="0" speed="8.00" length="5.93" width="3.20" shape="204.80,386.40 205.35,390.25 206.40,392.00"/>
    </edge>
    <edge id=":001_002_22" function="internal">
        <lane id=":001_002_22_0" index="0" speed="13.89" length="27.20" width="3.20" shape="204.80,386.40 204.80,413.60"/>
    </edge>
    <edge id=":001_002_23" function="internal">
        <lane id=":001_002_23_0" index="0" speed="11.07" length="11.48" width="3.20" shape="204.80,386.40 203.14,392.93 200.36,396.77"/>
    </edge>
    <edge id=":001_002_24" function="internal">
        <lane id=":001_002_24_0" index="0" speed="9.26" length="6.96" width="3.20" shape="201.60,386.40 202.35,391.65 203.20,393.07"/>
    </edge>
    <edge id=":001_002_25" function="internal">
        <lane id=":001_002_25_0" index="0" speed="13.89" length="27.20" width="3.20" shape="201.60,386.40 201.60,413.60"/>
    </edge>
    <edge id=":001_002_26" function="internal">
        <lane id=":001_002_26_0" index="0" speed="10.10" length="5.96" width="3.20" shape="201.60,386.40 200.23,391.80 200.00,392.12"/>
    </edge>
    <edge id=":001_002_41" function="internal">
        <lane id=":001_002_41_0" index="0" speed="11.87" length="26.08" width="3.20" shape="206.17,392.55 205.88,393.52 200.53,400.53 193.52,405.88 186.40,408.00"/>
    </edge>
    <edge id=":001_002_42" function="internal">
        <lane id=":001_002_42_0" index="0" speed="8.00" length="8.26" width="3.20" shape="206.40,392.00 207.00,393.00 209.75,394.65 213.60,395.20"/>
    </edge>
    <edge id=":001_002_43" function="internal">
        <lane id=":001_002_43_0" index="0" speed="11.07" length="16.62" width="3.20" shape="200.36,396.77 198.85,398.85 192.93,403.14 186.40,404.80"/>
    </edge>
    <edge id=":001_002_44" function="internal">
        <lane id=":001_002_44_0" index="0" speed="9.26" length="12.40" width="3.20" shape="203.20,393.07 204.60,395.40 208.35,397.65 213.60,398.40"/>
    </edge>
    <edge id=":001_002_45" function="internal">
        <lane id=":001_002_45_0" index="0" speed="10.10" length="17.25" width="3.20" shape="200.00,392.12 196.69,396.69 191.80,400.23 186.40,401.60"/>
    </edge>
    <edge id=":001_002_27" function="internal">
        <lane id=":001_002_27_0" index="0" speed="6.51" length="9.03" width="3.20" shape="186.40,392.00 188.85,391.65 190.60,390.60 191.65,388.85 192.00,386.40"/>
    </edge>
    <edge id=":001_002_28" function="internal">
        <lane id=":001_002_28_0" index="0" speed="13.89" length="27.20" width="3.20" shape="186.40,392.00 213.60,392.00"/>
    </edge>
    <edge id=":001_002_29" function="internal">
        <lane id=":001_002_29_0" index="0" speed="11.87" length="32.49" width="3.20" shape="186.40,392.00 193.52,394.13 200.53,399.47 205.88,406.48 208.00,413.60"/>
    </edge>
    <edge id=":001_002_30" function="internal">
        <lane id=":001_002_30_0" index="0" speed="8.00" length="14.19" width="3.20" shape="186.40,395.20 190.25,394.65 193.00,393.00 194.65,390.25 195.20,386.40"/>
    </edge>
    <edge id=":001_002_31" function="internal">
        <lane id=":001_002_31_0" index="0" speed="13.89" length="27.20" width="3.20" shape="186.40,395.20 213.60,395.20"/>
    </edge>
    <edge id=":001_002_32" function="internal">
        <lane id=":001_002_32_0" index="0" speed="11.07" length="28.10" width="3.20" shape="186.40,395.20 192.93,396.86 198.85,401.15 203.14,407.07 204.80,413.60"/>
    </edge>
    <edge id=":001_002_33" function="internal">
        <lane id=":001_002_33_0" index="0" speed="9.26" length="19.35" width="3.20" shape="186.40,398.40 191.65,397.65 195.40,395.40 197.65,391.65 198.40,386.40"/>
    </edge>
    <edge id=":001_002_34" function="internal">
        <lane id=":001_002_34_0" index="0" speed="13.89" length="27.20" width="3.20" shape="186.40,398.40 213.60,398.40"/>
    </edge>
    <edge id=":001_002_35" function="internal">
        <lane id=":001_002_35_0" index="0" speed="10.10" length="23.22" width="3.20" shape="186.40,398.40 191.80,399.77 196.69,403.31 200.23,408.20 201.60,413.60"/>
    </edge>
    <edge id=":002_001_0" function="internal">
        <lane id=":002_001_0_0" index="0" speed="6.51" length="9.03" width="3.20" shape="392.00,213.60 391.65,211.15 390.60,209.40 388.85,208.35 386.40,208.00"/>
    </edge>
    <edge id=":002_001_1" function="internal">
        <lane id=":002_001_1_0" index="0" speed="13.89" length="27.20" width="3.20" shape="392.00,213.60 392.00,186.40"/>
    </edge>
    <edge id=":002_001_2" function="internal">
        <lane id=":002_001_2_0" index="0" speed="11.87" length="6.41" width="3.20" shape="392.00,213.60 393.83,207.45"/>
    </edge>
    <edge id=":002_001_3" function="internal">
        <lane id=":002_001_3_0" index="0" speed="8.00" length="5.93" width="3.20" shape="395.20,213.60 394.65,209.75 393.60,208.00"/>
    </edge>
    <edge id=":002_001_4" function="internal">
        <lane id=":002_001_4_0" index="0" speed="13.89" length="27.20" width="3.20" shape="395.20,213.60 395.20,186.40"/>
    </edge>
    <edge id=":002_001_5" function="internal">
        <lane id=":002_001_5_0" index="0" speed="11.07" length="11.48" width="3.20" shape="395.20,213.60 396.86,207.07 399.64,203.23"/>
    </edge>
    <edge id=":002_001_6" function="internal">
        <lane id=":002_001_6_0" index="0" speed="9.26" length="6.96" width="3.20" shape="398.40,213.60 397.65,208.35 396.80,206.93"/>
    </edge>
    <edge id=":002_001_7" function="internal">
        <lane id=":002_001_7_0" index="0" speed="13.89" length="27.20" width="3.20" shape="398.40,213.60 398.40,186.40"/>
    </edge>
    <edge id=":002_001_8" function="internal">
        <lane id=":002_001_8_0" index="0" speed="10.10" length="5.96" width="3.20" shape="398.40,213.60 399.77,208.20 400.00,207.88"/>
    </edge>
    <edge id=":002_001_36" function="internal">
        <lane id=":002_001_36_0" index="0" speed="11.87" length="26.08" width="3.20" shape="393.83,207.45 394.13,206.48 399.47,199.47 406.48,194.13 413.60,192.00"/>
    </edge>
    <edge id=":002_001_37" function="internal">
        <lane id=":002_001_37_0" index="0" speed="8.00" length="8.26" width="3.20" shape="393.60,208.00 393.00,207.00 390.25,205.35 386.40,204.80"/>
    </edge>
    <edge id=":002_001_38" function="internal">
        <lane id=":002_001_38_0" index="0" speed="11.07" length="16.62" width="3.20" shape="399.64,203.23 401.15,201.15 407.07,196.86 413.60,195.20"/>
    </edge>
    <edge id=":002_001_39" function="internal">
        <lane id=":002_001_39_0" index="0" speed="9.26" length="12.40" width="3.20" shape="396.80,206.93 395.40,204.60 391.65,202.35 386.40,201.60"/>
    </edge>
    <edge id=":002_001_40" function="internal">
        <lane id=":002_001_40_0" index="0" speed="10.10" length="17.25" width="3.20" shape="400.00,207.88 403.31,203.31 408.20,199.77 413.60,198.40"/>
    </edge>
    <edge id=":002_001_9" function="internal">
        <lane id=":002_001_9_0" index="0" speed="6.51" length="9.03" width="3.20" shape="413.60,208.00 411.15,208.35 409.40,209.40 408.35,211.15 408.00,213.60"/>
    </edge>
    <edge id=":002_001_10" function="internal">
        <lane id=":002_001_10_0" index="0" speed="13.89" length="27.20" width="3.20" shape="413.60,208.00 386.40,208.00"/>
    </edge>
    <edge id=":002_001_11" function="internal">
        <lane id=":002_001_11_0" index="0" speed="11.87" length="32.49" width="3.20" shape="413.60,208.00 406.48,205.88 399.47,200.53 394.13,193.52 392.00,186.40"/>
    </edge>
    <edge id=":002_001_12" function="internal">
        <lane id=":002_001_12_0" index="0" speed="8.00" length="14.19" width="3.20" shape="413.60,204.80 409.75,205.35 407.00,207.00 405.35,209.75 404.80,213.60"/>
    </edge>
    <edge id=":002_001_13" function="internal">
        <lane id=":002_001_13_0" index="0" speed="13.89" length="27.20" width="3.20" shape="413.60,204.80 386.40,204.80"/>
    </edge>
    <edge id=":002_001_14" function="internal">
        <lane id=":002_001_14_0" index="0" speed="11.07" length="28.10" width="3.20" shape="413.60,204.80 407.07,203.14 401.15,198.85 396.86,192.93 395.20,186.40"/>
    </edge>
    <edge id=":002_001_15" function="internal">
        <lane id=":002_001_15_0" index="0" speed="9.26" length="19.35" width="3.20" shape="413.60,201.60 408.35,202.35 404.60,204.60 402.35,208.35 401.60,213.60"/>
    </edge>
    <edge id=":002_001_16" function="internal">
        <lane id=":002_001_16_0" index="0" speed="13.89" length="27.20" width="3.20" shape="413.60,201.60 386.40,201.60"/>
    </edge>
    <edge id=":002_001_17" function="internal">
        <lane id=":002_001_17_0" index="0" speed="10.10" length="23.22" width="3.20" shape="413.60,201.60 408.20,200.23 403.31,196.69 399.77,191.80 398.40,186.40"/>
    </edge>
    <edge id=":002_001_18" function="internal">
        <lane id=":002_001_18_0" index="0" speed="6.51" length="9.03" width="3.20" shape="408.00,186.40 408.35,188.85 409.40,190.60 411.15,191.65 413.60,192.00"/>
    </edge>
    <edge id=":002_001_19" function="internal">
        <lane id=":002_001_19_0" index="0" speed="13.89" length="27.20" width="3.20" shape="408.00,186.40 408.00,213.60"/>
    </edge>
    <edge id=":002_001_20" function="internal">
        <lane id=":002_001_20_0" index="0" speed="11.87" length="6.41" width="3.20" shape="408.00,186.40 406.17,192.55"/>
    </edge>
    <edge id=":002_001_21" function="internal">
        <lane id=":002_001_21_0" index="0" speed="8.00" length="5.93" width="3.20" shape="404.80,186.40 405.35,190.25 406.40,192.00"/>
    </edge>
    <edge id=":002_001_22" function="internal">
        <lane id=":002_001_22_0" index="0" speed="13.89" length="27.20" width="3.20" shape="404.80,186.40 404.80,213.60"/>
    </edge>
    <edge id=":002_001_23" function="internal">
        <lane id=":002_001_23_0" index="0" speed="11.07" length="11.48" width="3.20" shape="404.80,186.40 403.14,192.93 400.36,196.77"/>
    </edge>
    <edge id=":002_001_24" function="internal">
        <lane id=":002_001_24_0" index="0" speed="9.26" length="6.96" width="3.20" shape="401.60,186.40 402.35,191.65 403.20,193.07"/>
    </edge>
    <edge id=":002_001_25" function="internal">
        <lane id=":002_001_25_0" index="0" speed="13.89" length="27.20" width="3.20" shape="401.60,186.40 401.60,213.60"/>
    </edge>
    <edge id=":002_001_26" function="internal">
        <lane id=":002_001_26_0" index="0" speed="10.10" length="5.96" width="3.20" shape="401.60,186.40 400.23,191.80 400.00,192.12"/>
    </edge>
    <edge id=":002_001_41" function="internal">
        <lane id=":002_001_41_0" index="0" speed="11.87" length="26.08" width="3.20" shape="406.17,192.55 405.88,193.52 400.53,200.53 393.52,205.88 386.40,208.00"/>
    </edge>
    <edge id=":002_001_42" function="internal">
        <lane id=":002_001_42_0" index="0" speed="8.00" length="8.26" width="3.20" shape="406.40,192.00 407.00,193.00 409.75,194.65 413.60,195.20"/>
    </edge>
    <edge id=":002_001_43" function="internal">
        <lane id=":002_001_43_0" index="0" speed="11.07" length="16.62" width="3.20" shape="400.36,196.77 398.85,198.85 392.93,203.14 386.40,204.80"/>
    </edge>
    <edge id=":002_001_44" function="internal">
        <lane id=":002_001_44_0" index="0" speed="9.26" length="12.40" width="3.20" shape="403.20,193.07 404.60,195.40 408.35,197.65 413.60,198.40"/>
    </edge>
    <edge id=":002_001_45" function="internal">
        <lane id=":002_001_45_0" index="0" speed="10.10" length="17.25" width="3.20" shape="400.00,192.12 396.69,196.69 391.80,200.23 386.40,201.60"/>
    </edge>
    <edge id=":002_001_27" function="internal">
        <lane id=":002_001_27_0" index="0" speed="6.51" length="9.03" width="3.20" shape="386.40,192.00 388.85,191.65 390.60,190.60 391.65,188.85 392.00,186.40"/>
    </edge>
    <edge id=":002_001_28" function="internal">
        <lane id=":002_001_28_0" index="0" speed="13.89" length="27.20" width="3.20" shape="386.40,192.00 413.60,192.00"/>
    </edge>
    <edge id=":002_001_29" function="internal">
        <lane id=":002_001_29_0" index="0" speed="11.87" length="32.49" width="3.20" shape="386.40,192.00 393.52,194.13 400.53,199.47 405.88,206.48 408.00,213.60"/>
    </edge>
    <edge id=":002_001_30" function="internal">
        <lane id=":002_001_30_0" index="0" speed="8.00" length="14.19" width="3.20" shape="386.40,195.20 390.25,194.65 393.00,193.00 394.65,190.25 395.20,186.40"/>
    </edge>
    <edge id=":002_001_31" function="internal">
        <lane id=":002_001_31_0" index="0" speed="13.89" length="27.20" width="3.20" shape="386.40,195.20 413.60,195.20"/>
    </edge>
    <edge id=":002_001_32" function="internal">
        <lane id=":002_001_32_0" index="0" speed="11.07" length="28.10" width="3.20" shape="386.40,195.20 392.93,196.86 398.85,201.15 403.14,207.07 404.80,213.60"/>
    </edge>
    <edge id=":002_001_33" function="internal">
        <lane id=":002_001_33_0" index="0" speed="9.26" length="19.35" width="3.20" shape="386.40,198.40 391.65,197.65 395.40,195.40 397.65,191.65 398.40,186.40"/>
    </edge>
    <edge id=":002_001_34" function="internal">
        <lane id=":002_001_34_0" index="0" speed="13.89" length="27.20" width="3.20" shape="386.40,198.40 413.60,198.40"/>
    </edge>
    <edge id=":002_001_35" function="internal">
        <lane id=":002_001_35_0" index="0" speed="10.10" length="23.22" width="3.20" shape="386.40,198.40 391.80,199.77 396.69,203.31 400.23,208.20 401.60,213.60"/>
    </edge>
    <edge id=":002_002_0" function="internal">
        <lane id=":002_002_0_0" index="0" speed="6.51" length="9.03" width="3.20" shape="392.00,413.60 391.65,411.15 390.60,409.40 388.85,408.35 386.40,408.00"/>
    </edge>
    <edge id=":002_002_1" function="internal">
        <lane id=":002_002_1_0" index="0" speed="13.89" length="27.20" width="3.20" shape="392.00,413.60 392.00,386.40"/>
    </edge>
    <edge id=":002_002_2" function="internal">