<?xml version="1.0" encoding="UTF-8"?>

<!-- generated on Fri Feb 21 18:45:46 2020 by Eclipse SUMO netedit Version 1.4.0
<configuration xmlns:xsi="http://www.w3.org/2001/XMLSchema-instance" xsi:noNamespaceSchemaLocation="http://sumo.dlr.de/xsd/netconvertConfiguration.xsd">

    <input>
        <sumo-net-file value="/Users/jacksonwang/Downloads/Roadrunner_v2_traffic_light/data/lane3_tl1.net.xml"/>
    </input>

    <output>
        <output-file value="/Users/jacksonwang/Downloads/Roadrunner_v2_traffic_light/data/lane3_tl1.net.xml"/>
    </output>

    <processing>
        <geometry.min-radius.fix.railways value="false"/>
        <geometry.max-grade.fix value="false"/>
        <offset.disable-normalization value="true"/>
        <lefthand value="false"/>
    </processing>

    <junctions>
        <no-turnarounds value="true"/>
        <junctions.corner-detail value="5"/>
        <junctions.limit-turn-speed value="5.5"/>
        <rectangular-lane-cut value="false"/>
    </junctions>

    <pedestrian>
        <walkingareas value="false"/>
    </pedestrian>

    <report>
        <aggregate-warnings value="5"/>
    </report>

</configuration>
-->

<net version="1.3" junctionCornerDetail="5" limitTurnSpeed="5.50" xmlns:xsi="http://www.w3.org/2001/XMLSchema-instance" xsi:noNamespaceSchemaLocation="http://sumo.dlr.de/xsd/net_file.xsd">

    <location netOffset="0.00,0.00" convBoundary="-200.00,-200.00,200.00,200.00" origBoundary="-10000000000.00,-10000000000.00,10000000000.00,10000000000.00" projParameter="!"/>

    <edge id=":i0_0" function="internal">
        <lane id=":i0_0_0" index="0" speed="5.11" length="5.16" width="3.20" shape="-8.00,11.20 -8.20,9.80 -8.80,8.80 -9.80,8.20 -11.20,8.00"/>
    </edge>
    <edge id=":i0_1" function="internal">
        <lane id=":i0_1_0" index="0" speed="30.00" length="22.40" width="3.20" shape="-8.00,11.20 -8.00,-11.20"/>
        <lane id=":i0_1_1" index="1" speed="30.00" length="22.40" width="3.20" shape="-4.80,11.20 -4.80,-11.20"/>
    </edge>
    <edge id=":i0_3" function="internal">
        <lane id=":i0_3_0" index="0" speed="9.55" length="12.19" width="3.20" shape="-1.60,11.20 -0.80,5.60 1.60,1.60 3.20,0.64"/>
    </edge>
    <edge id=":i0_16" function="internal">
        <lane id=":i0_16_0" index="0" speed="9.55" length="8.46" width="3.20" shape="3.20,0.64 5.60,-0.80 11.20,-1.60"/>
    </edge>
    <edge id=":i0_4" function="internal">
        <lane id=":i0_4_0" index="0" speed="5.11" length="5.16" width="3.20" shape="11.20,8.00 9.80,8.20 8.80,8.80 8.20,9.80 8.00,11.20"/>
    </edge>
    <edge id=":i0_5" function="internal">
        <lane id=":i0_5_0" index="0" speed="30.00" length="22.40" width="3.20" shape="11.20,8.00 -11.20,8.00"/>
        <lane id=":i0_5_1" index="1" speed="30.00" length="22.40" width="3.20" shape="11.20,4.80 -11.20,4.80"/>
    </edge>
    <edge id=":i0_7" function="internal">
        <lane id=":i0_7_0" index="0" speed="9.55" length="12.19" width="3.20" shape="11.20,1.60 5.60,0.80 1.60,-1.60 0.64,-3.20"/>
    </edge>
    <edge id=":i0_17" function="internal">
        <lane id=":i0_17_0" index="0" speed="9.55" length="8.46" width="3.20" shape="0.64,-3.20 -0.80,-5.60 -1.60,-11.20"/>
    </edge>
    <edge id=":i0_8" function="internal">
        <lane id=":i0_8_0" index="0" speed="5.11" length="5.16" width="3.20" shape="8.00,-11.20 8.20,-9.80 8.80,-8.80 9.80,-8.20 11.20,-8.00"/>
    </edge>
    <edge id=":i0_9" function="internal">
        <lane id=":i0_9_0" index="0" speed="30.00" length="22.40" width="3.20" shape="8.00,-11.20 8.00,11.20"/>
        <lane id=":i0_9_1" index="1" speed="30.00" length="22.40" width="3.20" shape="4.80,-11.20 4.80,11.20"/>
    </edge>
    <edge id=":i0_11" function="internal">
        <lane id=":i0_11_0" index="0" speed="9.55" length="12.19" width="3.20" shape="1.60,-11.20 0.80,-5.60 -1.60,-1.60 -3.20,-0.64"/>
    </edge>
    <edge id=":i0_18" function="internal">
        <lane id=":i0_18_0" index="0" speed="9.55" length="8.46" width="3.20" shape="-3.20,-0.64 -5.60,0.80 -11.20,1.60"/>
    </edge>
    <edge id=":i0_12" function="internal">
        <lane id=":i0_12_0" index="0" speed="5.11" length="5.16" width="3.20" shape="-11.20,-8.00 -9.80,-8.20 -8.80,-8.80 -8.20,-9.80 -8.00,-11.20"/>
    </edge>
    <edge id=":i0_13" function="internal">
        <lane id=":i0_13_0" index="0" speed="30.00" length="22.40" width="3.20" shape="-11.20,-8.00 11.20,-8.00"/>
        <lane id=":i0_13_1" index="1" speed="30.00" length="22.40" width="3.20" shape="-11.20,-4.80 11.20,-4.80"/>
    </edge>
    <edge id=":i0_15" function="internal">
        <lane id=":i0_15_0" index="0" speed="9.55" length="12.19" width="3.20" shape="-11.20,-1.60 -5.60,-0.80 -1.60,1.60 -0.64,3.20"/>
    </edge>
    <edge id=":i0_19" function="internal">
        <lane id=":i0_19_0" index="0" speed="9.55" length="8.46" width="3.20" shape="-0.64,3.20 0.80,5.60 1.60,11.20"/>
    </edge>

    <edge id="-1" from="i0" to="i1" priority="-100" length="200.00">
        <lane id="-1_0" index="0" speed="30.00" length="200.00" width="3.20" shape="-11.20,8.00 -200.00,8.00"/>
        <lane id="-1_1" index="1" speed="30.00" length="200.00" width="3.20" shape="-11.20,4.80 -200.00,4.80"/>
        <lane id="-1_2" index="2" speed="30.00" length="200.00" width="3.20" shape="-11.20,1.60 -200.00,1.60"/>
    </edge>
    <edge id="-2" from="i0" to="i2" priority="-100" length="200.00">
        <lane id="-2_0" index="0" speed="30.00" length="200.00" width="3.20" shape="8.00,11.20 8.00,200.00"/>
        <lane id="-2_1" index="1" speed="30.00" length="200.00" width="3.20" shape="4.80,11.20 4.80,200.00"/>
        <lane id="-2_2" index="2" speed="30.00" length="200.00" width="3.20" shape="1.60,11.20 1.60,200.00"/>
    </edge>
    <edge id="-3" from="i0" to="i3" priority="-100" length="200.00">
        <lane id="-3_0" index="0" speed="30.00" length="200.00" width="3.20" shape="11.20,-8.00 200.00,-8.00"/>
        <lane id="-3_1" index="1" speed="30.00" length="200.00" width="3.20" shape="11.20,-4.80 200.00,-4.80"/>
        <lane id="-3_2" index="2" speed="30.00" length="200.00" width="3.20" shape="11.20,-1.60 200.00,-1.60"/>
    </edge>
    <edge id="-4" from="i0" to="i4" priority="-100" length="200.00">
        <lane id="-4_0" index="0" speed="30.00" length="200.00" width="3.20" shape="-8.00,-11.20 -8.00,-200.00"/>
        <lane id="-4_1" index="1" speed="30.00" length="200.00" width="3.20" shape="-4.80,-11.20 -4.80,-200.00"/>
        <lane id="-4_2" index="2" speed="30.00" length="200.00" width="3.20" shape="-1.60,-11.20 -1.60,-200.00"/>
    </edge>
    <edge id="1" from="i1" to="i0" priority="-100" length="200.00">
        <lane id="1_0" index="0" speed="30.00" length="200.00" width="3.20" shape="-200.00,-8.00 -11.20,-8.00"/>
        <lane id="1_1" index="1" speed="30.00" length="200.00" width="3.20" shape="-200.00,-4.80 -11.20,-4.80"/>
        <lane id="1_2" index="2" speed="30.00" length="200.00" width="3.20" shape="-200.00,-1.60 -11.20,-1.60"/>
    </edge>
    <edge id="2" from="i2" to="i0" priority="-100" length="200.00">
        <lane id="2_0" index="0" speed="30.00" length="200.00" width="3.20" shape="-8.00,200.00 -8.00,11.20"/>
        <lane id="2_1" index="1" speed="30.00" length="200.00" width="3.20" shape="-4.80,200.00 -4.80,11.20"/>
        <lane id="2_2" index="2" speed="30.00" length="200.00" width="3.20" shape="-1.60,200.00 -1.60,11.20"/>
    </edge>
    <edge id="3" from="i3" to="i0" priority="-100" length="200.00">
        <lane id="3_0" index="0" speed="30.00" length="200.00" width="3.20" shape="200.00,8.00 11.20,8.00"/>
        <lane id="3_1" index="1" speed="30.00" length="200.00" width="3.20" shape="200.00,4.80 11.20,4.80"/>
        <lane id="3_2" index="2" speed="30.00" length="200.00" width="3.20" shape="200.00,1.60 11.20,1.60"/>
    </edge>
    <edge id="4" from="i4" to="i0" priority="-100" length="200.00">
        <lane id="4_0" index="0" speed="30.00" length="200.00" width="3.20" shape="8.00,-200.00 8.00,-11.20"/>
        <lane id="4_1" index="1" speed="30.00" length="200.00" width="3.20" shape="4.80,-200.00 4.80,-11.20"/>
        <lane id="4_2" index="2" speed="30.00" length="200.00" width="3.20" shape="1.60,-200.00 1.60,-11.20"/>
    </edge>

    <tlLogic id="i0" type="static" programID="0" offset="0">
        <phase duration="39" state="GGGGgrrrrrGGGGgrrrrr"/>
        <phase duration="6"  state="yyyyyrrrrryyyyyrrrrr"/>
        <phase duration="39" state="rrrrrGGGGgrrrrrGGGGg"/>
        <phase duration="6"  state="rrrrryyyyyrrrrryyyyy"/>
    </tlLogic>

    <junction id="i0" type="traffic_light" x="0.00" y="0.00" incLanes="2_0 2_1 2_2 3_0 3_1 3_2 4_0 4_1 4_2 1_0 1_1 1_2" intLanes=":i0_0_0 :i0_1_0 :i0_1_1 :i0_16_0 :i0_4_0 :i0_5_0 :i0_5_1 :i0_17_0 :i0_8_0 :i0_9_0 :i0_9_1 :i0_18_0 :i0_12_0 :i0_13_0 :i0_13_1 :i0_19_0" shape="-9.60,11.20 9.60,11.20 9.78,10.31 10.00,10.00 10.31,9.78 10.71,9.64 11.20,9.60 11.20,-9.60 10.31,-9.78 10.00,-10.00 9.78,-10.31 9.64,-10.71 9.60,-11.20 -9.60,-11.20 -9.78,-10.31 -10.00,-10.00 -10.31,-9.78 -10.71,-9.64 -11.20,-9.60 -11.20,9.60 -10.31,9.78 -10.00,10.00 -9.78,10.31 -9.64,10.71" radius="1.60">
        <request index="0"  response="0000000000000000" foes="0000000001100000" cont="0"/>
        <request index="1"  response="1000000000000000" foes="1111100001100000" cont="0"/>
        <request index="2"  response="1000000000000000" foes="1111100001100000" cont="0"/>
        <request index="3"  response="1000011010000000" foes="1000011011100000" cont="1"/>
        <request index="4"  response="0000011000000000" foes="0000011000000000" cont="0"/>
        <request index="5"  response="0000011000001111" foes="1000011000001111" cont="0"/>
        <request index="6"  response="0000011000001111" foes="1000011000001111" cont="0"/>
        <request index="7"  response="0110111000001000" foes="0110111000001000" cont="1"/>
        <request index="8"  response="0000000000000000" foes="0110000000000000" cont="0"/>
        <request index="9"  response="0000000010000000" foes="0110000011111000" cont="0"/>
        <request index="10" response="0000000010000000" foes="0110000011111000" cont="0"/>
        <request index="11" response="1000000010000110" foes="1110000010000110" cont="1"/>
        <request index="12" response="0000000000000110" foes="0000000000000110" cont="0"/>
        <request index="13" response="0000111100000110" foes="0000111110000110" cont="0"/>
        <request index="14" response="0000111100000110" foes="0000111110000110" cont="0"/>
        <request index="15" response="0000100001101110" foes="0000100001101110" cont="1"/>
    </junction>
    <junction id="i1" type="unregulated" x="-200.00" y="0.00" incLanes="-1_0 -1_1 -1_2" intLanes="" shape="-200.00,0.00 -200.00,9.60 -200.00,0.00"/>
    <junction id="i2" type="unregulated" x="0.00" y="200.00" incLanes="-2_0 -2_1 -2_2" intLanes="" shape="0.00,200.00 9.60,200.00 0.00,200.00"/>
    <junction id="i3" type="unregulated" x="200.00" y="0.00" incLanes="-3_0 -3_1 -3_2" intLanes="" shape="200.00,0.00 200.00,-9.60 200.00,0.00"/>
    <junction id="i4" type="unregulated" x="0.00" y="-200.00" incLanes="-4_0 -4_1 -4_2" intLanes="" shape="0.00,-200.00 -9.60,-200.00 0.00,-200.00"/>

    <junction id=":i0_16_0" type="internal" x="3.20" y="0.64" incLanes=":i0_3_0 4_0 4_1" intLanes=":i0_5_0 :i0_5_1 :i0_7_0 :i0_8_0 :i0_9_0 :i0_9_1 :i0_13_0 :i0_13_1 :i0_15_0"/>
    <junction id=":i0_17_0" type="internal" x="0.64" y="-3.20" incLanes=":i0_7_0 1_0 1_1" intLanes=":i0_1_0 :i0_1_1 :i0_3_0 :i0_9_0 :i0_9_1 :i0_11_0 :i0_12_0 :i0_13_0 :i0_13_1"/>
    <junction id=":i0_18_0" type="internal" x="-3.20" y="-0.64" incLanes=":i0_11_0 2_0 2_1" intLanes=":i0_0_0 :i0_1_0 :i0_1_1 :i0_5_0 :i0_5_1 :i0_7_0 :i0_13_0 :i0_13_1 :i0_15_0"/>
    <junction id=":i0_19_0" type="internal" x="-0.64" y="3.20" incLanes=":i0_15_0 3_0 3_1" intLanes=":i0_1_0 :i0_1_1 :i0_3_0 :i0_4_0 :i0_5_0 :i0_5_1 :i0_9_0 :i0_9_1 :i0_11_0"/>

    <connection from="1" to="-4" fromLane="0" toLane="0" via=":i0_12_0" tl="i0" linkIndex="15" dir="r" state="o"/>
    <connection from="1" to="-3" fromLane="0" toLane="0" via=":i0_13_0" tl="i0" linkIndex="16" dir="s" state="o"/>
    <connection from="1" to="-3" fromLane="1" toLane="1" via=":i0_13_1" tl="i0" linkIndex="17" dir="s" state="o"/>
    <connection from="1" to="-2" fromLane="2" toLane="2" via=":i0_15_0" tl="i0" linkIndex="19" dir="l" state="o"/>
    <connection from="2" to="-1" fromLane="0" toLane="0" via=":i0_0_0" tl="i0" linkIndex="0" dir="r" state="O"/>
    <connection from="2" to="-4" fromLane="0" toLane="0" via=":i0_1_0" tl="i0" linkIndex="1" dir="s" state="O"/>
    <connection from="2" to="-4" fromLane="1" toLane="1" via=":i0_1_1" tl="i0" linkIndex="2" dir="s" state="O"/>
    <connection from="2" to="-3" fromLane="2" toLane="2" via=":i0_3_0" tl="i0" linkIndex="4" dir="l" state="o"/>
    <connection from="3" to="-2" fromLane="0" toLane="0" via=":i0_4_0" tl="i0" linkIndex="5" dir="r" state="o"/>
    <connection from="3" to="-1" fromLane="0" toLane="0" via=":i0_5_0" tl="i0" linkIndex="6" dir="s" state="o"/>
    <connection from="3" to="-1" fromLane="1" toLane="1" via=":i0_5_1" tl="i0" linkIndex="7" dir="s" state="o"/>
    <connection from="3" to="-4" fromLane="2" toLane="2" via=":i0_7_0" tl="i0" linkIndex="9" dir="l" state="o"/>
    <connection from="4" to="-3" fromLane="0" toLane="0" via=":i0_8_0" tl="i0" linkIndex="10" dir="r" state="O"/>
    <connection from="4" to="-2" fromLane="0" toLane="0" via=":i0_9_0" tl="i0" linkIndex="11" dir="s" state="O"/>
    <connection from="4" to="-2" fromLane="1" toLane="1" via=":i0_9_1" tl="i0" linkIndex="12" dir="s" state="O"/>
    <connection from="4" to="-1" fromLane="2" toLane="2" via=":i0_11_0" tl="i0" linkIndex="14" dir="l" state="o"/>

    <connection from=":i0_0" to="-1" fromLane="0" toLane="0" dir="r" state="M"/>
    <connection from=":i0_1" to="-4" fromLane="0" toLane="0" dir="s" state="M"/>
    <connection from=":i0_1" to="-4" fromLane="1" toLane="1" dir="s" state="M"/>
    <connection from=":i0_3" to="-3" fromLane="0" toLane="2" via=":i0_16_0" dir="l" state="m"/>
    <connection from=":i0_16" to="-3" fromLane="0" toLane="2" dir="l" state="M"/>
    <connection from=":i0_4" to="-2" fromLane="0" toLane="0" dir="r" state="M"/>
    <connection from=":i0_5" to="-1" fromLane="0" toLane="0" dir="s" state="M"/>
    <connection from=":i0_5" to="-1" fromLane="1" toLane="1" dir="s" state="M"/>
    <connection from=":i0_7" to="-4" fromLane="0" toLane="2" via=":i0_17_0" dir="l" state="m"/>
    <connection from=":i0_17" to="-4" fromLane="0" toLane="2" dir="l" state="M"/>
    <connection from=":i0_8" to="-3" fromLane="0" toLane="0" dir="r" state="M"/>
    <connection from=":i0_9" to="-2" fromLane="0" toLane="0" dir="s" state="M"/>
    <connection from=":i0_9" to="-2" fromLane="1" toLane="1" dir="s" state="M"/>
    <connection from=":i0_11" to="-1" fromLane="0" toLane="2" via=":i0_18_0" dir="l" state="m"/>
    <connection from=":i0_18" to="-1" fromLane="0" toLane="2" dir="l" state="M"/>
    <connection from=":i0_12" to="-4" fromLane="0" toLane="0" dir="r" state="M"/>
    <connection from=":i0_13" to="-3" fromLane="0" toLane="0" dir="s" state="M"/>
    <connection from=":i0_13" to="-3" fromLane="1" toLane="1" dir="s" state="M"/>
    <connection from=":i0_15" to="-2" fromLane="0" toLane="2" via=":i0_19_0" dir="l" state="m"/>
    <connection from=":i0_19" to="-2" fromLane="0" toLane="2" dir="l" state="M"/>

</net>
