<?xml version="1.0" encoding="UTF-8"?>

<!-- generated on Tue Feb 18 18:36:02 2020 by Eclipse SUMO netedit Version 1.4.0
<configuration xmlns:xsi="http://www.w3.org/2001/XMLSchema-instance" xsi:noNamespaceSchemaLocation="http://sumo.dlr.de/xsd/netconvertConfiguration.xsd">

    <input>
        <sumo-net-file value="/Users/jacksonwang/Documents/GitHub/Roadrunner_v2/data/lane3.net.xml"/>
    </input>

    <output>
        <output-file value="/Users/jacksonwang/Documents/GitHub/Roadrunner_v2/data/lane3_tl.net.xml"/>
    </output>

    <processing>
        <geometry.min-radius.fix.railways value="false"/>
        <geometry.max-grade.fix value="false"/>
        <offset.disable-normalization value="true"/>
        <lefthand value="false"/>
    </processing>

    <junctions>
        <no-turnarounds value="true"/>
        <junctions.corner-detail value="5"/>
        <junctions.limit-turn-speed value="5.5"/>
        <rectangular-lane-cut value="false"/>
    </junctions>

    <pedestrian>
        <walkingareas value="false"/>
    </pedestrian>

    <report>
        <aggregate-warnings value="5"/>
    </report>

</configuration>
-->

<net version="1.3" junctionCornerDetail="5" limitTurnSpeed="5.50" xmlns:xsi="http://www.w3.org/2001/XMLSchema-instance" xsi:noNamespaceSchemaLocation="http://sumo.dlr.de/xsd/net_file.xsd">

    <location netOffset="0.00,0.00" convBoundary="-200.00,-200.00,200.00,200.00" origBoundary="-10000000000.00,-10000000000.00,10000000000.00,10000000000.00" projParameter="!"/>

    <edge id=":i0_0" function="internal">
        <lane id=":i0_0_0" index="0" speed="5.11" length="5.16" width="3.20" shape="-8.00,11.20 -8.20,9.80 -8.80,8.80 -9.80,8.20 -11.20,8.00"/>
    </edge>
    <edge id=":i0_1" function="internal">
        <lane id=":i0_1_0" index="0" speed="11.28" length="2.63" width="3.20" shape="-8.00,11.20 -7.34,8.65"/>
    </edge>
    <edge id=":i0_2" function="internal">
        <lane id=":i0_2_0" index="0" speed="30.00" length="22.40" width="3.20" shape="-8.00,11.20 -8.00,-11.20"/>
        <lane id=":i0_2_1" index="1" speed="30.00" length="22.40" width="3.20" shape="-4.80,11.20 -4.80,-11.20"/>
    </edge>
    <edge id=":i0_4" function="internal">
        <lane id=":i0_4_0" index="0" speed="6.91" length="5.16" width="3.20" shape="-4.80,11.20 -5.20,8.40 -6.40,6.40"/>
    </edge>
    <edge id=":i0_5" function="internal">
        <lane id=":i0_5_0" index="0" speed="10.35" length="3.54" width="3.20" shape="-4.80,11.20 -3.93,7.77"/>
    </edge>
    <edge id=":i0_6" function="internal">
        <lane id=":i0_6_0" index="0" speed="8.33" length="6.19" width="3.20" shape="-1.60,11.20 -2.20,7.00 -3.20,5.33"/>
    </edge>
    <edge id=":i0_7" function="internal">
        <lane id=":i0_7_0" index="0" speed="30.00" length="22.40" width="3.20" shape="-1.60,11.20 -1.60,-11.20"/>
    </edge>
    <edge id=":i0_8" function="internal">
        <lane id=":i0_8_0" index="0" speed="9.30" length="5.45" width="3.20" shape="-1.60,11.20 -0.45,6.65 0.00,6.04"/>
    </edge>
    <edge id=":i0_36" function="internal">
        <lane id=":i0_36_0" index="0" speed="11.28" length="26.63" width="3.20" shape="-7.34,8.65 -6.25,4.45 -1.73,-1.73 4.45,-6.25 11.20,-8.00"/>
    </edge>
    <edge id=":i0_37" function="internal">
        <lane id=":i0_37_0" index="0" speed="6.91" length="5.16" width="3.20" shape="-6.40,6.40 -8.40,5.20 -11.20,4.80"/>
    </edge>
    <edge id=":i0_38" function="internal">
        <lane id=":i0_38_0" index="0" speed="10.35" length="20.90" width="3.20" shape="-3.93,7.77 -3.36,5.52 0.37,0.37 5.52,-3.36 11.20,-4.80"/>
    </edge>
    <edge id=":i0_39" function="internal">
        <lane id=":i0_39_0" index="0" speed="8.33" length="9.30" width="3.20" shape="-3.20,5.33 -4.00,4.00 -7.00,2.20 -11.20,1.60"/>
    </edge>
    <edge id=":i0_40" function="internal">
        <lane id=":i0_40_0" index="0" speed="9.30" length="14.10" width="3.20" shape="0.00,6.04 2.54,2.54 6.65,-0.45 11.20,-1.60"/>
    </edge>
    <edge id=":i0_9" function="internal">
        <lane id=":i0_9_0" index="0" speed="5.11" length="5.16" width="3.20" shape="11.20,8.00 9.80,8.20 8.80,8.80 8.20,9.80 8.00,11.20"/>
    </edge>
    <edge id=":i0_10" function="internal">
        <lane id=":i0_10_0" index="0" speed="11.28" length="16.78" width="3.20" shape="11.20,8.00 4.45,6.25 -1.73,1.73 -3.00,0.00"/>
    </edge>
    <edge id=":i0_11" function="internal">
        <lane id=":i0_11_0" index="0" speed="30.00" length="22.40" width="3.20" shape="11.20,8.00 -11.20,8.00"/>
        <lane id=":i0_11_1" index="1" speed="30.00" length="22.40" width="3.20" shape="11.20,4.80 -11.20,4.80"/>
    </edge>
    <edge id=":i0_13" function="internal">
        <lane id=":i0_13_0" index="0" speed="6.91" length="5.16" width="3.20" shape="11.20,4.80 8.40,5.20 6.40,6.40"/>
    </edge>
    <edge id=":i0_14" function="internal">
        <lane id=":i0_14_0" index="0" speed="10.35" length="11.59" width="3.20" shape="11.20,4.80 5.52,3.36 0.88,0.00"/>
    </edge>
    <edge id=":i0_15" function="internal">
        <lane id=":i0_15_0" index="0" speed="8.33" length="6.19" width="3.20" shape="11.20,1.60 7.00,2.20 5.33,3.20"/>
    </edge>
    <edge id=":i0_16" function="internal">
        <lane id=":i0_16_0" index="0" speed="30.00" length="22.40" width="3.20" shape="11.20,1.60 -11.20,1.60"/>
    </edge>
    <edge id=":i0_17" function="internal">
        <lane id=":i0_17_0" index="0" speed="9.30" length="5.45" width="3.20" shape="11.20,1.60 6.65,0.45 6.04,-0.00"/>
    </edge>
    <edge id=":i0_41" function="internal">
        <lane id=":i0_41_0" index="0" speed="11.28" length="12.48" width="3.20" shape="-3.00,0.00 -6.25,-4.45 -8.00,-11.20"/>
    </edge>
    <edge id=":i0_42" function="internal">
        <lane id=":i0_42_0" index="0" speed="6.91" length="5.16" width="3.20" shape="6.40,6.40 5.20,8.40 4.80,11.20"/>
    </edge>
    <edge id=":i0_43" function="internal">
        <lane id=":i0_43_0" index="0" speed="10.35" length="12.85" width="3.20" shape="0.88,0.00 0.37,-0.37 -3.36,-5.52 -4.80,-11.20"/>
    </edge>
    <edge id=":i0_44" function="internal">
        <lane id=":i0_44_0" index="0" speed="8.33" length="9.30" width="3.20" shape="5.33,3.20 4.00,4.00 2.20,7.00 1.60,11.20"/>
    </edge>
    <edge id=":i0_45" function="internal">
        <lane id=":i0_45_0" index="0" speed="9.30" length="14.10" width="3.20" shape="6.04,-0.00 2.54,-2.54 -0.45,-6.65 -1.60,-11.20"/>
    </edge>
    <edge id=":i0_18" function="internal">
        <lane id=":i0_18_0" index="0" speed="5.11" length="5.16" width="3.20" shape="8.00,-11.20 8.20,-9.80 8.80,-8.80 9.80,-8.20 11.20,-8.00"/>
    </edge>
    <edge id=":i0_19" function="internal">
        <lane id=":i0_19_0" index="0" speed="11.28" length="2.63" width="3.20" shape="8.00,-11.20 7.34,-8.65"/>
    </edge>
    <edge id=":i0_20" function="internal">
        <lane id=":i0_20_0" index="0" speed="30.00" length="22.40" width="3.20" shape="8.00,-11.20 8.00,11.20"/>
        <lane id=":i0_20_1" index="1" speed="30.00" length="22.40" width="3.20" shape="4.80,-11.20 4.80,11.20"/>
    </edge>
    <edge id=":i0_22" function="internal">
        <lane id=":i0_22_0" index="0" speed="6.91" length="5.16" width="3.20" shape="4.80,-11.20 5.20,-8.40 6.40,-6.40"/>
    </edge>
    <edge id=":i0_23" function="internal">
        <lane id=":i0_23_0" index="0" speed="10.35" length="3.54" width="3.20" shape="4.80,-11.20 3.93,-7.77"/>
    </edge>
    <edge id=":i0_24" function="internal">
        <lane id=":i0_24_0" index="0" speed="8.33" length="6.19" width="3.20" shape="1.60,-11.20 2.20,-7.00 3.20,-5.33"/>
    </edge>
    <edge id=":i0_25" function="internal">
        <lane id=":i0_25_0" index="0" speed="30.00" length="22.40" width="3.20" shape="1.60,-11.20 1.60,11.20"/>
    </edge>
    <edge id=":i0_26" function="internal">
        <lane id=":i0_26_0" index="0" speed="9.30" length="5.45" width="3.20" shape="1.60,-11.20 0.45,-6.65 -0.00,-6.04"/>
    </edge>
    <edge id=":i0_46" function="internal">
        <lane id=":i0_46_0" index="0" speed="11.28" length="26.63" width="3.20" shape="7.34,-8.65 6.25,-4.45 1.73,1.73 -4.45,6.25 -11.20,8.00"/>
    </edge>
    <edge id=":i0_47" function="internal">
        <lane id=":i0_47_0" index="0" speed="6.91" length="5.16" width="3.20" shape="6.40,-6.40 8.40,-5.20 11.20,-4.80"/>
    </edge>
    <edge id=":i0_48" function="internal">
        <lane id=":i0_48_0" index="0" speed="10.35" length="20.90" width="3.20" shape="3.93,-7.77 3.36,-5.52 -0.37,-0.37 -5.52,3.36 -11.20,4.80"/>
    </edge>
    <edge id=":i0_49" function="internal">
        <lane id=":i0_49_0" index="0" speed="8.33" length="9.30" width="3.20" shape="3.20,-5.33 4.00,-4.00 7.00,-2.20 11.20,-1.60"/>
    </edge>
    <edge id=":i0_50" function="internal">
        <lane id=":i0_50_0" index="0" speed="9.30" length="14.10" width="3.20" shape="-0.00,-6.04 -2.54,-2.54 -6.65,0.45 -11.20,1.60"/>
    </edge>
    <edge id=":i0_27" function="internal">
        <lane id=":i0_27_0" index="0" speed="5.11" length="5.16" width="3.20" shape="-11.20,-8.00 -9.80,-8.20 -8.80,-8.80 -8.20,-9.80 -8.00,-11.20"/>
    </edge>
    <edge id=":i0_28" function="internal">
        <lane id=":i0_28_0" index="0" speed="11.28" length="16.78" width="3.20" shape="-11.20,-8.00 -4.45,-6.25 1.73,-1.73 3.00,-0.00"/>
    </edge>
    <edge id=":i0_29" function="internal">
        <lane id=":i0_29_0" index="0" speed="30.00" length="22.40" width="3.20" shape="-11.20,-8.00 11.20,-8.00"/>
        <lane id=":i0_29_1" index="1" speed="30.00" length="22.40" width="3.20" shape="-11.20,-4.80 11.20,-4.80"/>
    </edge>
    <edge id=":i0_31" function="internal">
        <lane id=":i0_31_0" index="0" speed="6.91" length="5.16" width="3.20" shape="-11.20,-4.80 -8.40,-5.20 -6.40,-6.40"/>
    </edge>
    <edge id=":i0_32" function="internal">
        <lane id=":i0_32_0" index="0" speed="10.35" length="11.59" width="3.20" shape="-11.20,-4.80 -5.52,-3.36 -0.88,0.00"/>
    </edge>
    <edge id=":i0_33" function="internal">
        <lane id=":i0_33_0" index="0" speed="8.33" length="6.19" width="3.20" shape="-11.20,-1.60 -7.00,-2.20 -5.33,-3.20"/>
    </edge>
    <edge id=":i0_34" function="internal">
        <lane id=":i0_34_0" index="0" speed="30.00" length="22.40" width="3.20" shape="-11.20,-1.60 11.20,-1.60"/>
    </edge>
    <edge id=":i0_35" function="internal">
        <lane id=":i0_35_0" index="0" speed="9.30" length="5.45" width="3.20" shape="-11.20,-1.60 -6.65,-0.45 -6.04,0.00"/>
    </edge>
    <edge id=":i0_51" function="internal">
        <lane id=":i0_51_0" index="0" speed="11.28" length="12.48" width="3.20" shape="3.00,-0.00 6.25,4.45 8.00,11.20"/>
    </edge>
    <edge id=":i0_52" function="internal">
        <lane id=":i0_52_0" index="0" speed="6.91" length="5.16" width="3.20" shape="-6.40,-6.40 -5.20,-8.40 -4.80,-11.20"/>
    </edge>
    <edge id=":i0_53" function="internal">
        <lane id=":i0_53_0" index="0" speed="10.35" length="12.85" width="3.20" shape="-0.88,0.00 -0.37,0.37 3.36,5.52 4.80,11.20"/>
    </edge>
    <edge id=":i0_54" function="internal">
        <lane id=":i0_54_0" index="0" speed="8.33" length="9.30" width="3.20" shape="-5.33,-3.20 -4.00,-4.00 -2.20,-7.00 -1.60,-11.20"/>
    </edge>
    <edge id=":i0_55" function="internal">
        <lane id=":i0_55_0" index="0" speed="9.30" length="14.10" width="3.20" shape="-6.04,0.00 -2.54,2.54 0.45,6.65 1.60,11.20"/>
    </edge>

    <edge id="-1" from="i0" to="i1" priority="-100" length="200.00">
        <lane id="-1_0" index="0" speed="30.00" length="200.00" width="3.20" shape="-11.20,8.00 -200.00,8.00"/>
        <lane id="-1_1" index="1" speed="30.00" length="200.00" width="3.20" shape="-11.20,4.80 -200.00,4.80"/>
        <lane id="-1_2" index="2" speed="30.00" length="200.00" width="3.20" shape="-11.20,1.60 -200.00,1.60"/>
    </edge>
    <edge id="-2" from="i0" to="i2" priority="-100" length="200.00">
        <lane id="-2_0" index="0" speed="30.00" length="200.00" width="3.20" shape="8.00,11.20 8.00,200.00"/>
        <lane id="-2_1" index="1" speed="30.00" length="200.00" width="3.20" shape="4.80,11.20 4.80,200.00"/>
        <lane id="-2_2" index="2" speed="30.00" length="200.00" width="3.20" shape="1.60,11.20 1.60,200.00"/>
    </edge>
    <edge id="-3" from="i0" to="i3" priority="-100" length="200.00">
        <lane id="-3_0" index="0" speed="30.00" length="200.00" width="3.20" shape="11.20,-8.00 200.00,-8.00"/>
        <lane id="-3_1" index="1" speed="30.00" length="200.00" width="3.20" shape="11.20,-4.80 200.00,-4.80"/>
        <lane id="-3_2" index="2" speed="30.00" length="200.00" width="3.20" shape="11.20,-1.60 200.00,-1.60"/>
    </edge>
    <edge id="-4" from="i0" to="i4" priority="-100" length="200.00">
        <lane id="-4_0" index="0" speed="30.00" length="200.00" width="3.20" shape="-8.00,-11.20 -8.00,-200.00"/>
        <lane id="-4_1" index="1" speed="30.00" length="200.00" width="3.20" shape="-4.80,-11.20 -4.80,-200.00"/>
        <lane id="-4_2" index="2" speed="30.00" length="200.00" width="3.20" shape="-1.60,-11.20 -1.60,-200.00"/>
    </edge>
    <edge id="1" from="i1" to="i0" priority="-100" length="200.00">
        <lane id="1_0" index="0" speed="30.00" length="200.00" width="3.20" shape="-200.00,-8.00 -11.20,-8.00"/>
        <lane id="1_1" index="1" speed="30.00" length="200.00" width="3.20" shape="-200.00,-4.80 -11.20,-4.80"/>
        <lane id="1_2" index="2" speed="30.00" length="200.00" width="3.20" shape="-200.00,-1.60 -11.20,-1.60"/>
    </edge>
    <edge id="2" from="i2" to="i0" priority="-100" length="200.00">
        <lane id="2_0" index="0" speed="30.00" length="200.00" width="3.20" shape="-8.00,200.00 -8.00,11.20"/>
        <lane id="2_1" index="1" speed="30.00" length="200.00" width="3.20" shape="-4.80,200.00 -4.80,11.20"/>
        <lane id="2_2" index="2" speed="30.00" length="200.00" width="3.20" shape="-1.60,200.00 -1.60,11.20"/>
    </edge>
    <edge id="3" from="i3" to="i0" priority="-100" length="200.00">
        <lane id="3_0" index="0" speed="30.00" length="200.00" width="3.20" shape="200.00,8.00 11.20,8.00"/>
        <lane id="3_1" index="1" speed="30.00" length="200.00" width="3.20" shape="200.00,4.80 11.20,4.80"/>
        <lane id="3_2" index="2" speed="30.00" length="200.00" width="3.20" shape="200.00,1.60 11.20,1.60"/>
    </edge>
    <edge id="4" from="i4" to="i0" priority="-100" length="200.00">
        <lane id="4_0" index="0" speed="30.00" length="200.00" width="3.20" shape="8.00,-200.00 8.00,-11.20"/>
        <lane id="4_1" index="1" speed="30.00" length="200.00" width="3.20" shape="4.80,-200.00 4.80,-11.20"/>
        <lane id="4_2" index="2" speed="30.00" length="200.00" width="3.20" shape="1.60,-200.00 1.60,-11.20"/>
    </edge>

    <tlLogic id="i0" type="static" programID="0" offset="0">
        <phase duration="39" state="GGggGggGgrrrrrrrrrGGggGggGgrrrrrrrrr"/>
        <phase duration="6"  state="yyyyyyyyyrrrrrrrrryyyyyyyyyrrrrrrrrr"/>
        <phase duration="39" state="rrrrrrrrrGGggGggGgrrrrrrrrrGGggGggGg"/>
        <phase duration="6"  state="rrrrrrrrryyyyyyyyyrrrrrrrrryyyyyyyyy"/>
    </tlLogic>

    <junction id="i0" type="traffic_light" x="0.00" y="0.00" incLanes="2_0 2_1 2_2 3_0 3_1 3_2 4_0 4_1 4_2 1_0 1_1 1_2" intLanes=":i0_0_0 :i0_36_0 :i0_2_0 :i0_2_1 :i0_37_0 :i0_38_0 :i0_39_0 :i0_7_0 :i0_40_0 :i0_9_0 :i0_41_0 :i0_11_0 :i0_11_1 :i0_42_0 :i0_43_0 :i0_44_0 :i0_16_0 :i0_45_0 :i0_18_0 :i0_46_0 :i0_20_0 :i0_20_1 :i0_47_0 :i0_48_0 :i0_49_0 :i0_25_0 :i0_50_0 :i0_27_0 :i0_51_0 :i0_29_0 :i0_29_1 :i0_52_0 :i0_53_0 :i0_54_0 :i0_34_0 :i0_55_0" shape="-9.60,11.20 9.60,11.20 9.78,10.31 10.00,10.00 10.31,9.78 10.71,9.64 11.20,9.60 11.20,-9.60 10.31,-9.78 10.00,-10.00 9.78,-10.31 9.64,-10.71 9.60,-11.20 -9.60,-11.20 -9.78,-10.31 -10.00,-10.00 -10.31,-9.78 -10.71,-9.64 -11.20,-9.60 -11.20,9.60 -10.31,9.78 -10.00,10.00 -9.78,10.31 -9.64,10.71" radius="1.60">
        <request index="0"  response="000000000000000000000000000000000000" foes="000000000100100010010001100000000000" cont="0"/>
        <request index="1"  response="100100010111111111100100010010001000" foes="110101110111111111110101110011011000" cont="1"/>
        <request index="2"  response="101110010000000000100100010000000000" foes="111111111100100010110101110001010000" cont="0"/>
        <request index="3"  response="101110010000000000100100010000000000" foes="111111111100100010110101110001000010" cont="0"/>
        <request index="4"  response="000000000000000000000000000000000110" foes="000000000100100010010001100000000110" cont="1"/>
        <request index="5"  response="100100010011111111100100010010000000" foes="110101110011111111110101110011000000" cont="1"/>
        <request index="6"  response="000000000000000000000000000000101110" foes="000000000100100010010001100000101110" cont="1"/>
        <request index="7"  response="101110010000000000100100010000000000" foes="111111111100100010110101110000100010" cont="0"/>
        <request index="8"  response="100100010011011111100100010000000000" foes="110101110011011111110101110000000000" cont="1"/>
        <request index="9"  response="000000000010001100000000000000000000" foes="100100010010001100000000000000000000" cont="0"/>
        <request index="10" response="011011101110101110010001000110101110" foes="111111111110101110011011000110101110" cont="1"/>
        <request index="11" response="000000000110101110000000000111111111" foes="100100010110101110001010000111111111" cont="0"/>
        <request index="12" response="000000000110101110000000000111111111" foes="100100010110101110001000010111111111" cont="0"/>
        <request index="13" response="000000000010001100000000110000000000" foes="100100010010001100000000110000000000" cont="1"/>
        <request index="14" response="011011101110101110010000000110101110" foes="011111111110101110011000000110101110" cont="1"/>
        <request index="15" response="000000000010001100000101110000000000" foes="100100010010001100000101110000000000" cont="1"/>
        <request index="16" response="000000000110101110000000000111111111" foes="100100010110101110000100010111111111" cont="0"/>
        <request index="17" response="011011101110101110000000000110101110" foes="011011111110101110000000000110101110" cont="1"/>
        <request index="18" response="000000000000000000000000000000000000" foes="010001100000000000000000000100100010" cont="0"/>
        <request index="19" response="100100010010001000100100010011011101" foes="110101110011011000110101110111111111" cont="1"/>
        <request index="20" response="100100010000000000101110010000000000" foes="110101110001010000111111111100100010" cont="0"/>
        <request index="21" response="100100010000000000101110010000000000" foes="110101110001000010111111111100100010" cont="0"/>
        <request index="22" response="000000000000000110000000000000000000" foes="010001100000000110000000000100100010" cont="1"/>
        <request index="23" response="100100010010000000100100010011011101" foes="110101110011000000110101110011111111" cont="1"/>
        <request index="24" response="000000000000101110000000000000000000" foes="010001100000101110000000000100100010" cont="1"/>
        <request index="25" response="100100010000000000101110010000000000" foes="110101110000100010111111111100100010" cont="0"/>
        <request index="26" response="100100010000000000100100010011011101" foes="110101110000000000110101110011011111" cont="1"/>
        <request index="27" response="000000000000000000000000000010001100" foes="000000000000000000100100010010001100" cont="0"/>
        <request index="28" response="010001000110101110111111111110101110" foes="011011000110101110111111111110101110" cont="1"/>
        <request index="29" response="000000000111111111000000000110101110" foes="001010000111111111100100010110101110" cont="0"/>
        <request index="30" response="000000000111111111000000000110101110" foes="001000010111111111100100010110101110" cont="0"/>
        <request index="31" response="000000110000000000000000000010001100" foes="000000110000000000100100010010001100" cont="1"/>
        <request index="32" response="010000000110101110011111111110101110" foes="011000000110101110011111111110101110" cont="1"/>
        <request index="33" response="000101110000000000000000000010001100" foes="000101110000000000100100010010001100" cont="1"/>
        <request index="34" response="000000000111111111000000000110101110" foes="000100010111111111100100010110101110" cont="0"/>
        <request index="35" response="000000000110101110011011111110101110" foes="000000000110101110011011111110101110" cont="1"/>
    </junction>
    <junction id="i1" type="unregulated" x="-200.00" y="0.00" incLanes="-1_0 -1_1 -1_2" intLanes="" shape="-200.00,0.00 -200.00,9.60 -200.00,0.00"/>
    <junction id="i2" type="unregulated" x="0.00" y="200.00" incLanes="-2_0 -2_1 -2_2" intLanes="" shape="0.00,200.00 9.60,200.00 0.00,200.00"/>
    <junction id="i3" type="unregulated" x="200.00" y="0.00" incLanes="-3_0 -3_1 -3_2" intLanes="" shape="200.00,0.00 200.00,-9.60 200.00,0.00"/>
    <junction id="i4" type="unregulated" x="0.00" y="-200.00" incLanes="-4_0 -4_1 -4_2" intLanes="" shape="0.00,-200.00 -9.60,-200.00 0.00,-200.00"/>

    <junction id=":i0_36_0" type="internal" x="-7.34" y="8.65" incLanes=":i0_1_0 4_0 4_1 4_2 :i0_19_0 :i0_23_0 :i0_26_0" intLanes=":i0_46_0 :i0_48_0 :i0_50_0 :i0_2_1 :i0_7_0 :i0_10_0 :i0_11_0 :i0_11_1 :i0_14_0 :i0_16_0 :i0_17_0 :i0_18_0 :i0_19_0 :i0_20_0 :i0_20_1 :i0_22_0 :i0_23_0 :i0_24_0 :i0_25_0 :i0_26_0 :i0_28_0 :i0_29_0 :i0_29_1 :i0_32_0 :i0_34_0 :i0_35_0"/>
    <junction id=":i0_37_0" type="internal" x="-6.40" y="6.40" incLanes=":i0_4_0 2_0" intLanes=":i0_1_0 :i0_2_0 :i0_11_0 :i0_11_1 :i0_16_0 :i0_19_0 :i0_23_0 :i0_26_0"/>
    <junction id=":i0_38_0" type="internal" x="-3.93" y="7.77" incLanes=":i0_5_0 4_0 4_1 4_2 :i0_19_0 :i0_23_0" intLanes=":i0_46_0 :i0_48_0 :i0_7_0 :i0_10_0 :i0_11_0 :i0_11_1 :i0_14_0 :i0_16_0 :i0_17_0 :i0_18_0 :i0_19_0 :i0_20_0 :i0_20_1 :i0_22_0 :i0_23_0 :i0_24_0 :i0_25_0 :i0_28_0 :i0_29_0 :i0_29_1 :i0_32_0 :i0_34_0 :i0_35_0"/>
    <junction id=":i0_39_0" type="internal" x="-3.20" y="5.33" incLanes=":i0_6_0 2_0 2_1" intLanes=":i0_1_0 :i0_2_0 :i0_2_1 :i0_5_0 :i0_11_0 :i0_11_1 :i0_16_0 :i0_19_0 :i0_23_0 :i0_26_0"/>
    <junction id=":i0_40_0" type="internal" x="0.00" y="6.04" incLanes=":i0_8_0 4_0 4_1 4_2 :i0_19_0" intLanes=":i0_46_0 :i0_10_0 :i0_11_0 :i0_11_1 :i0_14_0 :i0_16_0 :i0_17_0 :i0_18_0 :i0_19_0 :i0_20_0 :i0_20_1 :i0_22_0 :i0_24_0 :i0_25_0 :i0_28_0 :i0_29_0 :i0_29_1 :i0_32_0 :i0_34_0 :i0_35_0"/>
    <junction id=":i0_41_0" type="internal" x="-3.00" y="0.00" incLanes=":i0_10_0 1_0 1_1 1_2" intLanes=":i0_1_0 :i0_2_0 :i0_2_1 :i0_5_0 :i0_7_0 :i0_8_0 :i0_11_1 :i0_16_0 :i0_19_0 :i0_20_0 :i0_20_1 :i0_23_0 :i0_25_0 :i0_26_0 :i0_27_0 :i0_28_0 :i0_29_0 :i0_29_1 :i0_31_0 :i0_32_0 :i0_33_0 :i0_34_0 :i0_35_0"/>
    <junction id=":i0_42_0" type="internal" x="6.40" y="6.40" incLanes=":i0_13_0 3_0" intLanes=":i0_10_0 :i0_11_0 :i0_20_0 :i0_20_1 :i0_25_0 :i0_28_0 :i0_32_0 :i0_35_0"/>
    <junction id=":i0_43_0" type="internal" x="0.88" y="0.00" incLanes=":i0_14_0 1_0 1_1 1_2" intLanes=":i0_1_0 :i0_2_0 :i0_2_1 :i0_5_0 :i0_7_0 :i0_8_0 :i0_16_0 :i0_19_0 :i0_20_0 :i0_20_1 :i0_23_0 :i0_25_0 :i0_26_0 :i0_27_0 :i0_28_0 :i0_29_0 :i0_29_1 :i0_31_0 :i0_32_0 :i0_33_0 :i0_34_0"/>
    <junction id=":i0_44_0" type="internal" x="5.33" y="3.20" incLanes=":i0_15_0 3_0 3_1" intLanes=":i0_10_0 :i0_11_0 :i0_11_1 :i0_14_0 :i0_20_0 :i0_20_1 :i0_25_0 :i0_28_0 :i0_32_0 :i0_35_0"/>
    <junction id=":i0_45_0" type="internal" x="6.04" y="-0.00" incLanes=":i0_17_0 1_0 1_1 1_2" intLanes=":i0_1_0 :i0_2_0 :i0_2_1 :i0_5_0 :i0_7_0 :i0_8_0 :i0_19_0 :i0_20_0 :i0_20_1 :i0_23_0 :i0_25_0 :i0_26_0 :i0_27_0 :i0_28_0 :i0_29_0 :i0_29_1 :i0_31_0 :i0_33_0 :i0_34_0"/>
    <junction id=":i0_46_0" type="internal" x="7.34" y="-8.65" incLanes=":i0_19_0 2_0 2_1 2_2" intLanes=":i0_0_0 :i0_1_0 :i0_2_0 :i0_2_1 :i0_4_0 :i0_5_0 :i0_6_0 :i0_7_0 :i0_8_0 :i0_10_0 :i0_11_0 :i0_11_1 :i0_14_0 :i0_16_0 :i0_17_0 :i0_20_1 :i0_25_0 :i0_28_0 :i0_29_0 :i0_29_1 :i0_32_0 :i0_34_0 :i0_35_0"/>
    <junction id=":i0_47_0" type="internal" x="6.40" y="-6.40" incLanes=":i0_22_0 4_0" intLanes=":i0_1_0 :i0_5_0 :i0_8_0 :i0_19_0 :i0_20_0 :i0_29_0 :i0_29_1 :i0_34_0"/>
    <junction id=":i0_48_0" type="internal" x="3.93" y="-7.77" incLanes=":i0_23_0 2_0 2_1 2_2" intLanes=":i0_0_0 :i0_1_0 :i0_2_0 :i0_2_1 :i0_4_0 :i0_5_0 :i0_6_0 :i0_7_0 :i0_10_0 :i0_11_0 :i0_11_1 :i0_14_0 :i0_16_0 :i0_17_0 :i0_25_0 :i0_28_0 :i0_29_0 :i0_29_1 :i0_32_0 :i0_34_0 :i0_35_0"/>
    <junction id=":i0_49_0" type="internal" x="3.20" y="-5.33" incLanes=":i0_24_0 4_0 4_1" intLanes=":i0_1_0 :i0_5_0 :i0_8_0 :i0_19_0 :i0_20_0 :i0_20_1 :i0_23_0 :i0_29_0 :i0_29_1 :i0_34_0"/>
    <junction id=":i0_50_0" type="internal" x="-0.00" y="-6.04" incLanes=":i0_26_0 2_0 2_1 2_2" intLanes=":i0_0_0 :i0_1_0 :i0_2_0 :i0_2_1 :i0_4_0 :i0_6_0 :i0_7_0 :i0_10_0 :i0_11_0 :i0_11_1 :i0_14_0 :i0_16_0 :i0_17_0 :i0_28_0 :i0_29_0 :i0_29_1 :i0_32_0 :i0_34_0 :i0_35_0"/>
    <junction id=":i0_51_0" type="internal" x="3.00" y="-0.00" incLanes=":i0_28_0 3_0 3_1 3_2" intLanes=":i0_1_0 :i0_2_0 :i0_2_1 :i0_5_0 :i0_7_0 :i0_8_0 :i0_9_0 :i0_10_0 :i0_11_0 :i0_11_1 :i0_13_0 :i0_14_0 :i0_15_0 :i0_16_0 :i0_17_0 :i0_19_0 :i0_20_0 :i0_20_1 :i0_23_0 :i0_25_0 :i0_26_0 :i0_29_1 :i0_34_0"/>
    <junction id=":i0_52_0" type="internal" x="-6.40" y="-6.40" incLanes=":i0_31_0 1_0" intLanes=":i0_2_0 :i0_2_1 :i0_7_0 :i0_10_0 :i0_14_0 :i0_17_0 :i0_28_0 :i0_29_0"/>
    <junction id=":i0_53_0" type="internal" x="-0.88" y="0.00" incLanes=":i0_32_0 3_0 3_1 3_2" intLanes=":i0_1_0 :i0_2_0 :i0_2_1 :i0_5_0 :i0_7_0 :i0_8_0 :i0_9_0 :i0_10_0 :i0_11_0 :i0_11_1 :i0_13_0 :i0_14_0 :i0_15_0 :i0_16_0 :i0_19_0 :i0_20_0 :i0_20_1 :i0_23_0 :i0_25_0 :i0_26_0 :i0_34_0"/>
    <junction id=":i0_54_0" type="internal" x="-5.33" y="-3.20" incLanes=":i0_33_0 1_0 1_1" intLanes=":i0_2_0 :i0_2_1 :i0_7_0 :i0_10_0 :i0_14_0 :i0_17_0 :i0_28_0 :i0_29_0 :i0_29_1 :i0_32_0"/>
    <junction id=":i0_55_0" type="internal" x="-6.04" y="0.00" incLanes=":i0_35_0 3_0 3_1 3_2" intLanes=":i0_1_0 :i0_2_0 :i0_2_1 :i0_5_0 :i0_7_0 :i0_8_0 :i0_9_0 :i0_10_0 :i0_11_0 :i0_11_1 :i0_13_0 :i0_15_0 :i0_16_0 :i0_19_0 :i0_20_0 :i0_20_1 :i0_23_0 :i0_25_0 :i0_26_0"/>

    <connection from="1" to="-4" fromLane="0" toLane="0" via=":i0_27_0" tl="i0" linkIndex="27" dir="r" state="o"/>
    <connection from="1" to="-2" fromLane="0" toLane="0" via=":i0_28_0" tl="i0" linkIndex="29" dir="l" state="o"/>
    <connection from="1" to="-3" fromLane="0" toLane="0" via=":i0_29_0" tl="i0" linkIndex="28" dir="s" state="o"/>
    <connection from="1" to="-3" fromLane="1" toLane="1" via=":i0_29_1" tl="i0" linkIndex="31" dir="s" state="o"/>
    <connection from="1" to="-4" fromLane="1" toLane="1" via=":i0_31_0" tl="i0" linkIndex="30" dir="r" state="o"/>
    <connection from="1" to="-2" fromLane="1" toLane="1" via=":i0_32_0" tl="i0" linkIndex="32" dir="l" state="o"/>
    <connection from="1" to="-4" fromLane="2" toLane="2" via=":i0_33_0" tl="i0" linkIndex="33" dir="r" state="o"/>
    <connection from="1" to="-3" fromLane="2" toLane="2" via=":i0_34_0" tl="i0" linkIndex="34" dir="s" state="o"/>
    <connection from="1" to="-2" fromLane="2" toLane="2" via=":i0_35_0" tl="i0" linkIndex="35" dir="l" state="o"/>
    <connection from="2" to="-1" fromLane="0" toLane="0" via=":i0_0_0" tl="i0" linkIndex="0" dir="r" state="O"/>
    <connection from="2" to="-3" fromLane="0" toLane="0" via=":i0_1_0" tl="i0" linkIndex="2" dir="l" state="o"/>
    <connection from="2" to="-4" fromLane="0" toLane="0" via=":i0_2_0" tl="i0" linkIndex="1" dir="s" state="O"/>
    <connection from="2" to="-4" fromLane="1" toLane="1" via=":i0_2_1" tl="i0" linkIndex="4" dir="s" state="O"/>
    <connection from="2" to="-1" fromLane="1" toLane="1" via=":i0_4_0" tl="i0" linkIndex="3" dir="r" state="o"/>
    <connection from="2" to="-3" fromLane="1" toLane="1" via=":i0_5_0" tl="i0" linkIndex="5" dir="l" state="o"/>
    <connection from="2" to="-1" fromLane="2" toLane="2" via=":i0_6_0" tl="i0" linkIndex="6" dir="r" state="o"/>
    <connection from="2" to="-4" fromLane="2" toLane="2" via=":i0_7_0" tl="i0" linkIndex="7" dir="s" state="O"/>
    <connection from="2" to="-3" fromLane="2" toLane="2" via=":i0_8_0" tl="i0" linkIndex="8" dir="l" state="o"/>
    <connection from="3" to="-2" fromLane="0" toLane="0" via=":i0_9_0" tl="i0" linkIndex="9" dir="r" state="o"/>
    <connection from="3" to="-4" fromLane="0" toLane="0" via=":i0_10_0" tl="i0" linkIndex="11" dir="l" state="o"/>
    <connection from="3" to="-1" fromLane="0" toLane="0" via=":i0_11_0" tl="i0" linkIndex="10" dir="s" state="o"/>
    <connection from="3" to="-1" fromLane="1" toLane="1" via=":i0_11_1" tl="i0" linkIndex="13" dir="s" state="o"/>
    <connection from="3" to="-2" fromLane="1" toLane="1" via=":i0_13_0" tl="i0" linkIndex="12" dir="r" state="o"/>
    <connection from="3" to="-4" fromLane="1" toLane="1" via=":i0_14_0" tl="i0" linkIndex="14" dir="l" state="o"/>
    <connection from="3" to="-2" fromLane="2" toLane="2" via=":i0_15_0" tl="i0" linkIndex="15" dir="r" state="o"/>
    <connection from="3" to="-1" fromLane="2" toLane="2" via=":i0_16_0" tl="i0" linkIndex="16" dir="s" state="o"/>
    <connection from="3" to="-4" fromLane="2" toLane="2" via=":i0_17_0" tl="i0" linkIndex="17" dir="l" state="o"/>
    <connection from="4" to="-3" fromLane="0" toLane="0" via=":i0_18_0" tl="i0" linkIndex="18" dir="r" state="O"/>
    <connection from="4" to="-1" fromLane="0" toLane="0" via=":i0_19_0" tl="i0" linkIndex="20" dir="l" state="o"/>
    <connection from="4" to="-2" fromLane="0" toLane="0" via=":i0_20_0" tl="i0" linkIndex="19" dir="s" state="O"/>
    <connection from="4" to="-2" fromLane="1" toLane="1" via=":i0_20_1" tl="i0" linkIndex="22" dir="s" state="O"/>
    <connection from="4" to="-3" fromLane="1" toLane="1" via=":i0_22_0" tl="i0" linkIndex="21" dir="r" state="o"/>
    <connection from="4" to="-1" fromLane="1" toLane="1" via=":i0_23_0" tl="i0" linkIndex="23" dir="l" state="o"/>