<?xml version="1.0" encoding="UTF-8"?>

<!-- generated on 04/19/21 00:58:29 by Eclipse SUMO netedit Version 1.8.0
<configuration xmlns:xsi="http://www.w3.org/2001/XMLSchema-instance" xsi:noNamespaceSchemaLocation="http://sumo.dlr.de/xsd/netconvertConfiguration.xsd">

    <input>
        <sumo-net-file value="D:\Google%20Drive\NYU\V2X\Roadrunner\code\Journal%20paper\Roadrunner_v3\data\lane3_roundabout.net.xml"/>
    </input>

    <output>
        <output-file value="D:\Google%20Drive\NYU\V2X\Roadrunner\code\Journal%20paper\Roadrunner_v3\data\lane3_roundabout.net.xml"/>
    </output>

    <processing>
        <geometry.min-radius.fix.railways value="false"/>
        <geometry.max-grade.fix value="false"/>
        <offset.disable-normalization value="true"/>
        <lefthand value="false"/>
    </processing>

    <junctions>
        <no-turnarounds value="true"/>
        <junctions.corner-detail value="5"/>
        <junctions.limit-turn-speed value="5.5"/>
        <rectangular-lane-cut value="false"/>
    </junctions>

    <pedestrian>
        <walkingareas value="false"/>
    </pedestrian>

    <report>
        <aggregate-warnings value="5"/>
    </report>

</configuration>
-->

<net version="1.6" junctionCornerDetail="5" limitTurnSpeed="5.50" xmlns:xsi="http://www.w3.org/2001/XMLSchema-instance" xsi:noNamespaceSchemaLocation="http://sumo.dlr.de/xsd/net_file.xsd">

    <location netOffset="0.00,0.00" convBoundary="-200.00,-200.00,200.00,200.00" origBoundary="-10000000000.00,-10000000000.00,10000000000.00,10000000000.00" projParameter="!"/>

    <edge id=":gneJ0_0" function="internal">
        <lane id=":gneJ0_0_0" index="0" speed="8.07" length="9.01" width="3.20" shape="14.01,27.17 11.75,28.62 10.14,30.25 9.17,32.05 8.84,34.02"/>
    </edge>
    <edge id=":gneJ0_1" function="internal">
        <lane id=":gneJ0_1_0" index="0" speed="13.89" length="27.26" width="3.20" shape="14.01,27.17 7.78,29.59 1.33,30.33 -5.34,29.41 -12.22,26.82"/>
    </edge>
    <edge id=":gneJ0_2" function="internal">
        <lane id=":gneJ0_2_0" index="0" speed="9.88" length="6.59" width="3.20" shape="13.82,23.65 10.25,25.92 8.55,27.57"/>
    </edge>
    <edge id=":gneJ0_3" function="internal">
        <lane id=":gneJ0_3_0" index="0" speed="13.89" length="26.76" width="3.20" shape="13.82,23.65 7.67,26.04 1.32,26.80 -5.21,25.92 -11.93,23.40"/>
    </edge>
    <edge id=":gneJ0_4" function="internal">
        <lane id=":gneJ0_4_0" index="0" speed="11.41" length="7.47" width="3.20" shape="13.63,20.13 8.75,23.21 7.52,24.38"/>
    </edge>
    <edge id=":gneJ0_5" function="internal">
        <lane id=":gneJ0_5_0" index="0" speed="13.89" length="26.25" width="3.20" shape="13.63,20.13 7.55,22.50 1.32,23.27 -5.08,22.43 -11.64,19.98"/>
    </edge>
    <edge id=":gneJ0_9" function="internal">
        <lane id=":gneJ0_9_0" index="0" speed="9.88" length="7.25" width="3.20" shape="8.55,27.57 7.70,28.40 6.16,31.09 5.64,34.00"/>
    </edge>
    <edge id=":gneJ0_10" function="internal">
        <lane id=":gneJ0_10_0" index="0" speed="11.41" length="11.21" width="3.20" shape="7.52,24.38 5.25,26.55 3.15,30.14 2.44,33.99"/>
    </edge>
    <edge id=":gneJ0_6" function="internal">
        <lane id=":gneJ0_6_0" index="0" speed="7.97" length="9.23" width="3.20" shape="-7.16,33.94 -7.47,31.76 -8.42,29.84 -10.00,28.20 -12.22,26.82"/>
    </edge>
    <edge id=":gneJ0_7" function="internal">
        <lane id=":gneJ0_7_0" index="0" speed="9.69" length="13.97" width="3.20" shape="-3.96,33.95 -4.45,30.81 -5.94,28.00 -8.43,25.53 -11.93,23.40"/>
    </edge>
    <edge id=":gneJ0_8" function="internal">
        <lane id=":gneJ0_8_0" index="0" speed="11.14" length="18.70" width="3.20" shape="-0.76,33.97 -1.43,29.85 -3.46,26.15 -6.86,22.86 -11.64,19.98"/>
    </edge>
    <edge id=":gneJ1_0" function="internal">
        <lane id=":gneJ1_0_0" index="0" speed="7.54" length="8.78" width="3.20" shape="34.92,7.65 32.78,7.95 30.96,8.86 29.47,10.39 28.30,12.53"/>
    </edge>
    <edge id=":gneJ1_1" function="internal">
        <lane id=":gneJ1_1_0" index="0" speed="9.18" length="13.36" width="3.20" shape="34.93,4.45 31.78,4.92 29.07,6.36 26.82,8.75 25.01,12.11"/>
    </edge>
    <edge id=":gneJ1_2" function="internal">
        <lane id=":gneJ1_2_0" index="0" speed="10.57" length="17.95" width="3.20" shape="34.94,1.25 30.77,1.89 27.18,3.85 24.16,7.12 21.72,11.70"/>
    </edge>
    <edge id=":gneJ1_3" function="internal">
        <lane id=":gneJ1_3_0" index="0" speed="7.66" length="8.69" width="3.20" shape="28.41,-13.29 29.66,-11.13 31.17,-9.59 32.93,-8.67 34.96,-8.35"/>
    </edge>
    <edge id=":gneJ1_4" function="internal">
        <lane id=":gneJ1_4_0" index="0" speed="13.89" length="26.55" width="3.20" shape="28.41,-13.29 30.48,-7.11 31.14,-0.75 30.42,5.80 28.30,12.53"/>
    </edge>
    <edge id=":gneJ1_5" function="internal">
        <lane id=":gneJ1_5_0" index="0" speed="9.37" length="6.15" width="3.20" shape="25.04,-12.97 26.99,-9.56 28.51,-7.94"/>
    </edge>
    <edge id=":gneJ1_6" function="internal">
        <lane id=":gneJ1_6_0" index="0" speed="13.89" length="25.80" width="3.20" shape="25.04,-12.97 27.07,-6.94 27.74,-0.75 27.05,5.60 25.01,12.11"/>
    </edge>
    <edge id=":gneJ1_7" function="internal">
        <lane id=":gneJ1_7_0" index="0" speed="10.82" length="7.01" width="3.20" shape="21.67,-12.66 24.32,-7.98 25.43,-6.78"/>
    </edge>
    <edge id=":gneJ1_8" function="internal">
        <lane id=":gneJ1_8_0" index="0" speed="13.89" length="25.05" width="3.20" shape="21.67,-12.66 23.66,-6.76 24.33,-0.74 23.68,5.41 21.72,11.70"/>
    </edge>
    <edge id=":gneJ1_9" function="internal">
        <lane id=":gneJ1_9_0" index="0" speed="9.37" length="7.21" width="3.20" shape="28.51,-7.94 29.29,-7.11 31.94,-5.65 34.95,-5.15"/>
    </edge>
    <edge id=":gneJ1_10" function="internal">
        <lane id=":gneJ1_10_0" index="0" speed="10.82" length="11.03" width="3.20" shape="25.43,-6.78 27.41,-4.64 30.96,-2.63 34.95,-1.95"/>
    </edge>
    <edge id=":gneJ2_0" function="internal">
        <lane id=":gneJ2_0_0" index="0" speed="7.81" length="8.99" width="3.20" shape="8.11,-34.97 8.43,-32.89 9.39,-31.06 10.98,-29.49 13.21,-28.18"/>
    </edge>
    <edge id=":gneJ2_1" function="internal">
        <lane id=":gneJ2_1_0" index="0" speed="9.51" length="13.65" width="3.20" shape="4.91,-34.96 5.41,-31.91 6.90,-29.20 9.39,-26.83 12.87,-24.80"/>
    </edge>
    <edge id=":gneJ2_2" function="internal">
        <lane id=":gneJ2_2_0" index="0" speed="10.95" length="18.32" width="3.20" shape="1.71,-34.96 2.39,-30.93 4.42,-27.33 7.80,-24.17 12.53,-21.43"/>
    </edge>
    <edge id=":gneJ2_3" function="internal">
        <lane id=":gneJ2_3_0" index="0" speed="7.87" length="8.84" width="3.20" shape="-13.03,-28.33 -10.78,-29.71 -9.17,-31.28 -8.21,-33.03 -7.89,-34.96"/>
    </edge>
    <edge id=":gneJ2_4" function="internal">
        <lane id=":gneJ2_4_0" index="0" speed="13.89" length="27.17" width="3.20" shape="-13.03,-28.33 -6.72,-30.67 -0.24,-31.42 6.40,-30.59 13.21,-28.18"/>
    </edge>
    <edge id=":gneJ2_5" function="internal">
        <lane id=":gneJ2_5_0" index="0" speed="9.66" length="6.54" width="3.20" shape="-12.80,-24.86 -9.25,-27.02 -7.52,-28.66"/>
    </edge>
    <edge id=":gneJ2_6" function="internal">
        <lane id=":gneJ2_6_0" index="0" speed="13.89" length="26.58" width="3.20" shape="-12.80,-24.86 -6.59,-27.17 -0.24,-27.94 6.25,-27.15 12.87,-24.80"/>
    </edge>
    <edge id=":gneJ2_7" function="internal">
        <lane id=":gneJ2_7_0" index="0" speed="11.16" length="7.40" width="3.20" shape="-12.57,-21.40 -7.72,-24.34 -6.45,-25.52"/>
    </edge>
    <edge id=":gneJ2_8" function="internal">
        <lane id=":gneJ2_8_0" index="0" speed="13.89" length="25.99" width="3.20" shape="-12.57,-21.40 -6.46,-23.68 -0.24,-24.45 6.09,-23.70 12.53,-21.43"/>
    </edge>
    <edge id=":gneJ2_9" function="internal">
        <lane id=":gneJ2_9_0" index="0" speed="9.66" length="7.09" width="3.20" shape="-7.52,-28.66 -6.71,-29.43 -5.19,-32.07 -4.69,-34.96"/>
    </edge>
    <edge id=":gneJ2_10" function="internal">
        <lane id=":gneJ2_10_0" index="0" speed="11.16" length="11.02" width="3.20" shape="-6.45,-25.52 -4.26,-27.57 -2.18,-31.12 -1.49,-34.96"/>
    </edge>
    <edge id=":gneJ3_0" function="internal">
        <lane id=":gneJ3_0_0" index="0" speed="7.80" length="8.57" width="3.20" shape="-27.73,12.40 -29.06,10.34 -30.60,8.87 -32.37,7.98 -34.36,7.69"/>
    </edge>
    <edge id=":gneJ3_1" function="internal">
        <lane id=":gneJ3_1_0" index="0" speed="13.89" length="26.44" width="3.20" shape="-27.73,12.40 -30.17,6.06 -30.96,-0.29 -30.10,-6.65 -27.60,-13.01"/>
    </edge>
    <edge id=":gneJ3_2" function="internal">
        <lane id=":gneJ3_2_0" index="0" speed="9.54" length="6.20" width="3.20" shape="-24.35,11.99 -26.42,8.70 -28.07,7.07"/>
    </edge>
    <edge id=":gneJ3_3" function="internal">
        <lane id=":gneJ3_3_0" index="0" speed="13.89" length="25.47" width="3.20" shape="-24.35,11.99 -26.71,5.86 -27.48,-0.26 -26.66,-6.38 -24.26,-12.49"/>
    </edge>
    <edge id=":gneJ3_4" function="internal">
        <lane id=":gneJ3_4_0" index="0" speed="11.01" length="7.03" width="3.20" shape="-20.97,11.57 -23.79,7.07 -25.00,5.84"/>
    </edge>
    <edge id=":gneJ3_5" function="internal">
        <lane id=":gneJ3_5_0" index="0" speed="13.89" length="24.49" width="3.20" shape="-20.97,11.57 -23.24,5.66 -23.99,-0.23 -23.22,-6.11 -20.93,-11.97"/>
    </edge>
    <edge id=":gneJ3_9" function="internal">
        <lane id=":gneJ3_9_0" index="0" speed="9.54" length="6.98" width="3.20" shape="-28.07,7.07 -28.78,6.36 -31.43,4.96 -34.37,4.49"/>
    </edge>
    <edge id=":gneJ3_10" function="internal">
        <lane id=":gneJ3_10_0" index="0" speed="11.01" length="10.74" width="3.20" shape="-25.00,5.84 -26.96,3.85 -30.49,1.93 -34.37,1.29"/>
    </edge>
    <edge id=":gneJ3_6" function="internal">
        <lane id=":gneJ3_6_0" index="0" speed="7.89" length="8.70" width="3.20" shape="-34.39,-8.31 -32.34,-8.60 -30.52,-9.49 -28.95,-10.95 -27.60,-13.01"/>
    </edge>
    <edge id=":gneJ3_7" function="internal">
        <lane id=":gneJ3_7_0" index="0" speed="9.60" length="13.19" width="3.20" shape="-34.38,-5.11 -31.40,-5.57 -28.72,-6.96 -26.34,-9.26 -24.26,-12.49"/>
    </edge>
    <edge id=":gneJ3_8" function="internal">
        <lane id=":gneJ3_8_0" index="0" speed="11.05" length="17.68" width="3.20" shape="-34.38,-1.91 -30.46,-2.54 -26.91,-4.43 -23.73,-7.57 -20.93,-11.97"/>
    </edge>

    <edge id="-1" from="gneJ3" to="i1" priority="-100" length="200.00">
        <lane id="-1_0" index="0" speed="30.00" length="200.00" width="3.20" shape="-34.36,7.69 -199.99,8.00"/>
        <lane id="-1_1" index="1" speed="30.00" length="200.00" width="3.20" shape="-34.37,4.49 -199.99,4.80"/>
        <lane id="-1_2" index="2" speed="30.00" length="200.00" width="3.20" shape="-34.37,1.29 -200.00,1.60"/>
    </edge>
    <edge id="-2" from="gneJ0" to="i2" priority="-100" length="200.00">
        <lane id="-2_0" index="0" speed="30.00" length="200.00" width="3.20" shape="8.84,34.02 8.00,200.04"/>
        <lane id="-2_1" index="1" speed="30.00" length="200.00" width="3.20" shape="5.64,34.00 4.80,200.02"/>
        <lane id="-2_2" index="2" speed="30.00" length="200.00" width="3.20" shape="2.44,33.99 1.60,200.01"/>
    </edge>
    <edge id="-3" from="gneJ1" to="i3" priority="-100" length="200.00">
        <lane id="-3_0" index="0" speed="30.00" length="200.00" width="3.20" shape="34.96,-8.35 200.02,-8.00"/>
        <lane id="-3_1" index="1" speed="30.00" length="200.00" width="3.20" shape="34.95,-5.15 200.01,-4.80"/>
        <lane id="-3_2" index="2" speed="30.00" length="200.00" width="3.20" shape="34.95,-1.95 200.00,-1.60"/>
    </edge>
    <edge id="-4" from="gneJ2" to="i4" priority="-100" length="200.00">
        <lane id="-4_0" index="0" speed="30.00" length="200.00" width="3.20" shape="-7.89,-34.96 -8.00,-199.99"/>
        <lane id="-4_1" index="1" speed="30.00" length="200.00" width="3.20" shape="-4.69,-34.96 -4.80,-200.00"/>
        <lane id="-4_2" index="2" speed="30.00" length="200.00" width="3.20" shape="-1.49,-34.96 -1.60,-200.00"/>
    </edge>
    <edge id="1" from="i1" to="gneJ3" priority="-100" length="200.00">
        <lane id="1_0" index="0" speed="30.00" length="200.00" width="3.20" shape="-200.01,-8.00 -34.39,-8.31"/>
        <lane id="1_1" index="1" speed="30.00" length="200.00" width="3.20" shape="-200.01,-4.80 -34.38,-5.11"/>
        <lane id="1_2" index="2" speed="30.00" length="200.00" width="3.20" shape="-200.00,-1.60 -34.38,-1.91"/>
    </edge>
    <edge id="11" from="gneJ3" to="gneJ2" priority="-1" length="16.00" shape="-22.62,-0.33 -21.82,-5.86 -20.41,-9.50 -18.49,-13.18 -16.38,-16.39 -13.36,-19.21 -9.48,-21.16 -5.72,-22.22 0.12,-22.49">
        <lane id="11_0" index="0" speed="13.89" length="16.00" width="3.20" shape="-27.60,-13.01 -25.40,-17.24 -22.54,-21.58 -17.98,-25.84 -13.03,-28.33"/>
        <lane id="11_1" index="1" speed="13.89" length="16.00" width="3.20" shape="-24.26,-12.49 -22.63,-15.61 -20.08,-19.51 -16.13,-23.19 -12.80,-24.86"/>
        <lane id="11_2" index="2" speed="13.89" length="16.00" width="3.20" shape="-20.93,-11.97 -19.87,-13.99 -17.61,-17.43 -14.28,-20.54 -12.57,-21.40"/>
    </edge>
    <edge id="2" from="i2" to="gneJ0" priority="-100" length="200.00">
        <lane id="2_0" index="0" speed="30.00" length="200.00" width="3.20" shape="-8.00,199.96 -7.16,33.94"/>
        <lane id="2_1" index="1" speed="30.00" length="200.00" width="3.20" shape="-4.80,199.98 -3.96,33.95"/>
        <lane id="2_2" index="2" speed="30.00" length="200.00" width="3.20" shape="-1.60,199.99 -0.76,33.97"/>
    </edge>
    <edge id="22" from="gneJ0" to="gneJ3" priority="-1" length="16.00" shape="0.90,21.39 -5.07,20.97 -8.80,19.59 -12.58,17.74 -15.98,15.47 -18.79,12.31 -20.71,8.57 -21.99,5.38 -22.62,-0.33">
        <lane id="22_0" index="0" speed="13.89" length="16.00" width="3.20" shape="-12.22,26.82 -16.58,24.69 -21.28,21.55 -25.44,16.87 -27.73,12.40"/>
        <lane id="22_1" index="1" speed="13.89" length="16.00" width="3.20" shape="-11.93,23.40 -14.98,21.91 -19.16,19.12 -22.78,15.04 -24.35,11.99"/>
        <lane id="22_2" index="2" speed="13.89" length="16.00" width="3.20" shape="-11.64,19.98 -13.38,19.13 -17.04,16.69 -20.12,13.22 -20.97,11.57"/>
    </edge>
    <edge id="3" from="i3" to="gneJ1" priority="-100" length="200.00">
        <lane id="3_0" index="0" speed="30.00" length="200.00" width="3.20" shape="199.98,8.00 34.92,7.65"/>
        <lane id="3_1" index="1" speed="30.00" length="200.00" width="3.20" shape="199.99,4.80 34.93,4.45"/>
        <lane id="3_2" index="2" speed="30.00" length="200.00" width="3.20" shape="200.00,1.60 34.94,1.25"/>
    </edge>
    <edge id="33" from="gneJ1" to="gneJ0" priority="-1" length="16.00" shape="22.88,-0.38 22.20,5.27 21.28,8.56 19.88,11.95 17.61,15.26 14.36,17.93 10.57,19.94 6.98,21.21 0.90,21.39">
        <lane id="33_0" index="0" speed="13.89" length="16.00" width="3.20" shape="28.30,12.53 26.95,15.78 23.57,20.72 18.82,24.62 14.01,27.17"/>
        <lane id="33_1" index="1" speed="13.89" length="16.00" width="3.20" shape="25.01,12.11 24.12,14.25 21.18,18.54 17.03,21.94 13.82,23.65"/>
        <lane id="33_2" index="2" speed="13.89" length="16.00" width="3.20" shape="21.72,11.70 21.29,12.72 18.80,16.35 15.25,19.27 13.63,20.13"/>
    </edge>
    <edge id="4" from="i4" to="gneJ2" priority="-100" length="200.00">
        <lane id="4_0" index="0" speed="30.00" length="200.00" width="3.20" shape="8.00,-200.01 8.11,-34.97"/>
        <lane id="4_1" index="1" speed="30.00" length="200.00" width="3.20" shape="4.80,-200.00 4.91,-34.96"/>
        <lane id="4_2" index="2" speed="30.00" length="200.00" width="3.20" shape="1.60,-200.00 1.71,-34.96"/>
    </edge>
    <edge id="44" from="gneJ2" to="gneJ1" priority="-1" length="16.00" shape="0.12,-22.49 6.27,-21.95 9.93,-20.88 13.84,-19.06 17.11,-16.31 19.80,-12.91 21.27,-9.67 22.40,-6.25 22.88,-0.38">
        <lane id="44_0" index="0" speed="13.89" length="16.00" width="3.20" shape="13.21,-28.18 18.18,-25.87 22.88,-21.91 26.68,-17.11 28.41,-13.29"/>
        <lane id="44_1" index="1" speed="13.89" length="16.00" width="3.20" shape="12.87,-24.80 16.44,-23.14 20.57,-19.67 23.93,-15.43 25.04,-12.97"/>
        <lane id="44_2" index="2" speed="13.89" length="16.00" width="3.20" shape="12.53,-21.43 14.71,-20.42 18.26,-17.43 21.18,-13.75 21.67,-12.66"/>
    </edge>

    <junction id="gneJ0" type="priority" x="0.90" y="21.39" incLanes="33_0 33_1 33_2 2_0 2_1 2_2" intLanes=":gneJ0_0_0 :gneJ0_1_0 :gneJ0_9_0 :gneJ0_3_0 :gneJ0_10_0 :gneJ0_5_0 :gneJ0_6_0 :gneJ0_7_0 :gneJ0_8_0" shape="14.10,28.87 13.53,18.37 9.53,20.12 5.46,21.17 1.32,21.50 -2.89,21.13 -7.16,20.06 -11.49,18.27 -12.37,28.51 -10.36,29.70 -9.65,30.53 -9.15,31.51 -8.86,32.65 -8.76,33.93 10.44,34.03 10.85,31.74 11.36,30.81 12.07,30.02 12.98,29.38">
        <request index="0" response="000000000" foes="000000000" cont="0"/>
        <request index="1" response="000000000" foes="111010100" cont="0"/>
        <request index="2" response="000000010" foes="000000010" cont="1"/>
        <request index="3" response="000000000" foes="110010000" cont="0"/>
        <request index="4" response="000001010" foes="000001010" cont="1"/>
        <request index="5" response="000000000" foes="100000000" cont="0"/>
        <request index="6" response="000000010" foes="000000010" cont="0"/>
        <request index="7" response="000001010" foes="000001010" cont="0"/>
        <request index="8" response="000101010" foes="000101010" cont="0"/>
    </junction>
    <junction id="gneJ1" type="priority" x="22.88" y="-0.38" incLanes="3_0 3_1 3_2 44_0 44_1 44_2" intLanes=":gneJ1_0_0 :gneJ1_1_0 :gneJ1_2_0 :gneJ1_3_0 :gneJ1_4_0 :gneJ1_9_0 :gneJ1_6_0 :gneJ1_10_0 :gneJ1_8_0" shape="34.92,9.25 34.96,-9.95 32.96,-10.34 32.11,-10.83 31.34,-11.51 30.67,-12.38 30.10,-13.44 19.99,-12.50 21.44,-8.63 22.32,-4.71 22.62,-0.74 22.35,3.29 21.50,7.36 20.07,11.49 29.94,12.74 31.14,10.79 31.91,10.11 32.80,9.63 33.80,9.34">
        <request index="0" response="000010000" foes="000010000" cont="0"/>
        <request index="1" response="001010000" foes="001010000" cont="0"/>
        <request index="2" response="101010000" foes="101010000" cont="0"/>
        <request index="3" response="000000000" foes="000000000" cont="0"/>
        <request index="4" response="000000000" foes="010100111" cont="0"/>
        <request index="5" response="000010000" foes="000010000" cont="1"/>
        <request index="6" response="000000000" foes="010000110" cont="0"/>
        <request index="7" response="001010000" foes="001010000" cont="1"/>
        <request index="8" response="000000000" foes="000000100" cont="0"/>
    </junction>
    <junction id="gneJ2" type="priority" x="0.12" y="-22.49" incLanes="4_0 4_1 4_2 11_0 11_1 11_2" intLanes=":gneJ2_0_0 :gneJ2_1_0 :gneJ2_2_0 :gneJ2_3_0 :gneJ2_4_0 :gneJ2_9_0 :gneJ2_6_0 :gneJ2_10_0 :gneJ2_8_0" shape="12.37,-19.75 13.38,-29.86 11.32,-31.20 10.62,-32.00 10.11,-32.89 9.81,-33.88 9.71,-34.97 -9.49,-34.95 -9.89,-33.05 -10.40,-32.20 -11.12,-31.42 -12.03,-30.71 -13.15,-30.06 -12.45,-19.67 -8.42,-21.35 -4.35,-22.36 -0.24,-22.71 3.92,-22.39 8.12,-21.40">
        <request index="0" response="000010000" foes="000010000" cont="0"/>
        <request index="1" response="001010000" foes="001010000" cont="0"/>
        <request index="2" response="101010000" foes="101010000" cont="0"/>
        <request index="3" response="000000000" foes="000000000" cont="0"/>
        <request index="4" response="000000000" foes="010100111" cont="0"/>
        <request index="5" response="000010000" foes="000010000" cont="1"/>
        <request index="6" response="000000000" foes="010000110" cont="0"/>
        <request index="7" response="001010000" foes="001010000" cont="1"/>
        <request index="8" response="000000000" foes="000000100" cont="0"/>
    </junction>
    <junction id="gneJ3" type="priority" x="-22.62" y="-0.33" incLanes="22_0 22_1 22_2 1_0 1_1 1_2" intLanes=":gneJ3_0_0 :gneJ3_1_0 :gneJ3_9_0 :gneJ3_3_0 :gneJ3_10_0 :gneJ3_5_0 :gneJ3_6_0 :gneJ3_7_0 :gneJ3_8_0" shape="-29.42,12.61 -19.28,11.36 -20.93,7.49 -21.92,3.64 -22.25,-0.21 -21.92,-4.05 -20.92,-7.89 -19.26,-11.71 -29.25,-13.26 -30.40,-11.40 -31.18,-10.75 -32.11,-10.28 -33.18,-10.00 -34.39,-9.91 -34.36,9.29 -32.38,9.65 -31.52,10.11 -30.75,10.74 -30.06,11.56">
        <request index="0" response="000000000" foes="000000000" cont="0"/>
        <request index="1" response="000000000" foes="111010100" cont="0"/>
        <request index="2" response="000000010" foes="000000010" cont="1"/>
        <request index="3" response="000000000" foes="110010000" cont="0"/>
        <request index="4" response="000001010" foes="000001010" cont="1"/>
        <request index="5" response="000000000" foes="100000000" cont="0"/>
        <request index="6" response="000000010" foes="000000010" cont="0"/>
        <request index="7" response="000001010" foes="000001010" cont="0"/>
        <request index="8" response="000101010" foes="000101010" cont="0"/>
    </junction>
    <junction id="i1" type="unregulated" x="-200.00" y="0.00" incLanes="-1_0 -1_1 -1_2" intLanes="" shape="-200.00,-0.00 -199.98,9.60 -200.00,-0.00"/>
    <junction id="i2" type="unregulated" x="0.00" y="200.00" incLanes="-2_0 -2_1 -2_2" intLanes="" shape="0.00,200.00 9.60,200.05 0.00,200.00"/>
    <junction id="i3" type="unregulated" x="200.00" y="0.00" incLanes="-3_0 -3_1 -3_2" intLanes="" shape="200.00,0.00 200.02,-9.60 200.00,0.00"/>
    <junction id="i4" type="unregulated" x="0.00" y="-200.00" incLanes="-4_0 -4_1 -4_2" intLanes="" shape="-0.00,-200.00 -9.60,-199.99 0.00,-200.00"/>

    <junction id=":gneJ0_9_0" type="internal" x="8.55" y="27.57" incLanes=":gneJ0_2_0 33_0" intLanes=":gneJ0_1_0"/>
    <junction id=":gneJ0_10_0" type="internal" x="7.52" y="24.38" incLanes=":gneJ0_4_0 33_0 33_1" intLanes=":gneJ0_1_0 :gneJ0_3_0"/>
    <junction id=":gneJ1_9_0" type="internal" x="28.51" y="-7.94" incLanes=":gneJ1_5_0 44_0" intLanes=":gneJ1_4_0"/>
    <junction id=":gneJ1_10_0" type="internal" x="25.43" y="-6.78" incLanes=":gneJ1_7_0 44_0 44_1" intLanes=":gneJ1_4_0 :gneJ1_6_0"/>
    <junction id=":gneJ2_9_0" type="internal" x="-7.52" y="-28.66" incLanes=":gneJ2_5_0 11_0" intLanes=":gneJ2_4_0"/>
    <junction id=":gneJ2_10_0" type="internal" x="-6.45" y="-25.52" incLanes=":gneJ2_7_0 11_0 11_1" intLanes=":gneJ2_4_0 :gneJ2_6_0"/>
    <junction id=":gneJ3_9_0" type="internal" x="-28.07" y="7.07" incLanes=":gneJ3_2_0 22_0" intLanes=":gneJ3_1_0"/>
    <junction id=":gneJ3_10_0" type="internal" x="-25.00" y="5.84" incLanes=":gneJ3_4_0 22_0 22_1" intLanes=":gneJ3_1_0 :gneJ3_3_0"/>

    <connection from="1" to="11" fromLane="0" toLane="0" via=":gneJ3_6_0" dir="r" state="m" visibility="9.00"/>
    <connection from="1" to="11" fromLane="1" toLane="1" via=":gneJ3_7_0" dir="r" state="m" visibility="9.00"/>
    <connection from="1" to="11" fromLane="2" toLane="2" via=":gneJ3_8_0" dir="r" state="m" visibility="9.00"/>
    <connection from="11" to="-4" fromLane="0" toLane="0" via=":gneJ2_3_0" dir="r" state="M"/>
    <connection from="11" to="44" fromLane="0" toLane="0" via=":gneJ2_4_0" dir="s" state="M"/>
    <connection from="11" to="-4" fromLane="1" toLane="1" via=":gneJ2_5_0" dir="r" state="m"/>
    <connection from="11" to="44" fromLane="1" toLane="1" via=":gneJ2_6_0" dir="s" state="M"/>
    <connection from="11" to="-4" fromLane="2" toLane="2" via=":gneJ2_7_0" dir="r" state="m"/>
    <connection from="11" to="44" fromLane="2" toLane="2" via=":gneJ2_8_0" dir="s" state="M"/>
    <connection from="2" to="22" fromLane="0" toLane="0" via=":gneJ0_6_0" dir="r" state="m" visibility="9.00"/>
    <connection from="2" to="22" fromLane="1" toLane="1" via=":gneJ0_7_0" dir="r" state="m" visibility="9.00"/>
    <connection from="2" to="22" fromLane="2" toLane="2" via=":gneJ0_8_0" dir="r" state="m" visibility="9.00"/>
    <connection from="22" to="-1" fromLane="0" toLane="0" via=":gneJ3_0_0" dir="r" state="M"/>
    <connection from="22" to="11" fromLane="0" toLane="0" via=":gneJ3_1_0" dir="s" state="M"/>
    <connection from="22" to="-1" fromLane="1" toLane="1" via=":gneJ3_2_0" dir="r" state="m"/>
    <connection from="22" to="11" fromLane="1" toLane="1" via=":gneJ3_3_0" dir="s" state="M"/>
    <connection from="22" to="-1" fromLane="2" toLane="2" via=":gneJ3_4_0" dir="r" state="m"/>
    <connection from="22" to="11" fromLane="2" toLane="2" via=":gneJ3_5_0" dir="s" state="M"/>
    <connection from="3" to="33" fromLane="0" toLane="0" via=":gneJ1_0_0" dir="r" state="m" visibility="9.00"/>
    <connection from="3" to="33" fromLane="1" toLane="1" via=":gneJ1_1_0" dir="r" state="m" visibility="9.00"/>
    <connection from="3" to="33" fromLane="2" toLane="2" via=":gneJ1_2_0" dir="r" state="m" visibility="9.00"/>
    <connection from="33" to="-2" fromLane="0" toLane="0" via=":gneJ0_0_0" dir="r" state="M"/>
    <connection from="33" to="22" fromLane="0" toLane="0" via=":gneJ0_1_0" dir="s" state="M"/>
    <connection from="33" to="-2" fromLane="1" toLane="1" via=":gneJ0_2_0" dir="r" state="m"/>
    <connection from="33" to="22" fromLane="1" toLane="1" via=":gneJ0_3_0" dir="s" state="M"/>
    <connection from="33" to="-2" fromLane="2" toLane="2" via=":gneJ0_4_0" dir="r" state="m"/>
    <connection from="33" to="22" fromLane="2" toLane="2" via=":gneJ0_5_0" dir="s" state="M"/>
    <connection from="4" to="44" fromLane="0" toLane="0" via=":gneJ2_0_0" dir="r" state="m" visibility="9.00"/>
    <connection from="4" to="44" fromLane="1" toLane="1" via=":gneJ2_1_0" dir="r" state="m" visibility="9.00"/>
    <connection from="4" to="44" fromLane="2" toLane="2" via=":gneJ2_2_0" dir="r" state="m" visibility="9.00"/>
    <connection from="44" to="-3" fromLane="0" toLane="0" via=":gneJ1_3_0" dir="r" state="M"/>
    <connection from="44" to="33" fromLane="0" toLane="0" via=":gneJ1_4_0" dir="s" state="M"/>
    <connection from="44" to="-3" fromLane="1" toLane="1" via=":gneJ1_5_0" dir="r" state="m"/>
    <connection from="44" to="33" fromLane="1" toLane="1" via=":gneJ1_6_0" dir="s" state="M"/>
    <connection from="44" to="-3" fromLane="2" toLane="2" via=":gneJ1_7_0" dir="r" state="m"/>
    <connection from="44" to="33" fromLane="2" toLane="2" via=":gneJ1_8_0" dir="s" state="M"/>

    <connection from=":gneJ0_0" to="-2" fromLane="0" toLane="0" dir="r" state="M"/>
    <connection from=":gneJ0_1" to="22" fromLane="0" toLane="0" dir="s" state="M"/>
    <connection from=":gneJ0_2" to="-2" fromLane="0" toLane="1" via=":gneJ0_9_0" dir="r" state="m"/>
    <connection from=":gneJ0_9" to="-2" fromLane="0" toLane="1" dir="r" state="M"/>
    <connection from=":gneJ0_3" to="22" fromLane="0" toLane="1" dir="s" state="M"/>
    <connection from=":gneJ0_4" to="-2" fromLane="0" toLane="2" via=":gneJ0_10_0" dir="r" state="m"/>
    <connection from=":gneJ0_10" to="-2" fromLane="0" toLane="2" dir="r" state="M"/>
    <connection from=":gneJ0_5" to="22" fromLane="0" toLane="2" dir="s" state="M"/>
    <connection from=":gneJ0_6" to="22" fromLane="0" toLane="0" dir="r" state="M"/>
    <connection from=":gneJ0_7" to="22" fromLane="0" toLane="1" dir="r" state="M"/>
    <connection from=":gneJ0_8" to="22" fromLane="0" toLane="2" dir="r" state="M"/>
    <connection from=":gneJ1_0" to="33" fromLane="0" toLane="0" dir="r" state="M"/>
    <connection from=":gneJ1_1" to="33" fromLane="0" toLane="1" dir="r" state="M"/>
    <connection from=":gneJ1_2" to="33" fromLane="0" toLane="2" dir="r" state="M"/>
    <connection from=":gneJ1_3" to="-3" fromLane="0" toLane="0" dir="r" state="M"/>
    <connection from=":gneJ1_4" to="33" fromLane="0" toLane="0" dir="s" state="M"/>
    <connection from=":gneJ1_5" to="-3" fromLane="0" toLane="1" via=":gneJ1_9_0" dir="r" state="m"/>
    <connection from=":gneJ1_9" to="-3" fromLane="0" toLane="1" dir="r" state="M"/>
    <connection from=":gneJ1_6" to="33" fromLane="0" toLane="1" dir="s" state="M"/>
    <connection from=":gneJ1_7" to="-3" fromLane="0" toLane="2" via=":gneJ1_10_0" dir="r" state="m"/>
    <connection from=":gneJ1_10" to="-3" fromLane="0" toLane="2" dir="r" state="M"/>
    <connection from=":gneJ1_8" to="33" fromLane="0" toLane="2" dir="s" state="M"/>
    <connection from=":gneJ2_0" to="44" fromLane="0" toLane="0" dir="r" state="M"/>
    <connection from=":gneJ2_1" to="44" fromLane="0" toLane="1" dir="r" state="M"/>
    <connection from=":gneJ2_2" to="44" fromLane="0" toLane="2" dir="r" state="M"/>
    <connection from=":gneJ2_3" to="-4" fromLane="0" toLane="0" dir="r" state="M"/>
    <connection from=":gneJ2_4" to="44" fromLane="0" toLane="0" dir="s" state="M"/>
    <connection from=":gneJ2_5" to="-4" fromLane="0" toLane="1" via=":gneJ2_9_0" dir="r" state="m"/>
    <connection from=":gneJ2_9" to="-4" fromLane="0" toLane="1" dir="r" state="M"/>
    <connection from=":gneJ2_6" to="44" fromLane="0" toLane="1" dir="s" state="M"/>
    <connection from=":gneJ2_7" to="-4" fromLane="0" toLane="2" via=":gneJ2_10_0" dir="r" state="m"/>
    <connection from=":gneJ2_10" to="-4" fromLane="0" toLane="2" dir="r" state="M"/>
    <connection from=":gneJ2_8" to="44" fromLane="0" toLane="2" dir="s" state="M"/>
    <connection from=":gneJ3_0" to="-1" fromLane="0" toLane="0" dir="r" state="M"/>
    <connection from=":gneJ3_1" to="11" fromLane="0" toLane="0" dir="s" state="M"/>
    <connection from=":gneJ3_2" to="-1" fromLane="0" toLane="1" via=":gneJ3_9_0" dir="r" state="m"/>
    <connection from=":gneJ3_9" to="-1" fromLane="0" toLane="1" dir="r" state="M"/>
    <connection from=":gneJ3_3" to="11" fromLane="0" toLane="1" dir="s" state="M"/>
    <connection from=":gneJ3_4" to="-1" fromLane="0" toLane="2" via=":gneJ3_10_0" dir="r" state="m"/>
    <connection from=":gneJ3_10" to="-1" fromLane="0" toLane="2" dir="r" state="M"/>
    <connection from=":gneJ3_5" to="11" fromLane="0" toLane="2" dir="s" state="M"/>
    <connection from=":gneJ3_6" to="11" fromLane="0" toLane="0" dir="r" state="M"/>