<?xml version="1.0" encoding="UTF-8"?>

<!-- generated on 03/30/20 21:57:52 by Eclipse SUMO netedit Version 1.3.1
<configuration xmlns:xsi="http://www.w3.org/2001/XMLSchema-instance" xsi:noNamespaceSchemaLocation="http://sumo.dlr.de/xsd/netconvertConfiguration.xsd">

    <input>
        <sumo-net-file value="D:\Google%20Drive\NYU\V2X\UDTA\Roadrunner_v3\data\Lightlane2by2.net.xml"/>
    </input>

    <output>
        <output-file value="D:\Google%20Drive\NYU\V2X\UDTA\Roadrunner_v3\data\Lightlane2by2.net.xml"/>
    </output>

    <processing>
        <geometry.max-grade.fix value="false"/>
        <offset.disable-normalization value="true"/>
        <opposites.guess.fix-lengths value="true"/>
        <lefthand value="false"/>
    </processing>

    <junctions>
        <no-turnarounds value="true"/>
        <junctions.corner-detail value="5"/>
        <junctions.limit-turn-speed value="5.5"/>
        <rectangular-lane-cut value="false"/>
    </junctions>

    <pedestrian>
        <walkingareas value="false"/>
    </pedestrian>

</configuration>
-->

<net version="1.3" junctionCornerDetail="5" limitTurnSpeed="5.50" xmlns:xsi="http://www.w3.org/2001/XMLSchema-instance" xsi:noNamespaceSchemaLocation="http://sumo.dlr.de/xsd/net_file.xsd">

    <location netOffset="0.00,0.00" convBoundary="0.00,0.00,600.00,600.00" origBoundary="0.00,0.00,600.00,600.00" projParameter="!"/>

    <edge id=":001_001_0" function="internal">
        <lane id=":001_001_0_0" index="0" speed="6.51" length="9.03" width="3.20" shape="192.00,213.60 191.65,211.15 190.60,209.40 188.85,208.35 186.40,208.00"/>
    </edge>
    <edge id=":001_001_1" function="internal">
        <lane id=":001_001_1_0" index="0" speed="13.89" length="27.20" width="3.20" shape="192.00,213.60 192.00,186.40"/>
        <lane id=":001_001_1_1" index="1" speed="13.89" length="27.20" width="3.20" shape="195.20,213.60 195.20,186.40"/>
        <lane id=":001_001_1_2" index="2" speed="13.89" length="27.20" width="3.20" shape="198.40,213.60 198.40,186.40"/>
    </edge>
    <edge id=":001_001_4" function="internal">
        <lane id=":001_001_4_0" index="0" speed="10.36" length="7.98" width="3.20" shape="198.40,213.60 199.35,206.95 200.00,205.87"/>
    </edge>
    <edge id=":001_001_20" function="internal">
        <lane id=":001_001_20_0" index="0" speed="10.36" length="16.53" width="3.20" shape="200.00,205.87 202.20,202.20 206.95,199.35 213.60,198.40"/>
    </edge>
    <edge id=":001_001_5" function="internal">
        <lane id=":001_001_5_0" index="0" speed="6.51" length="9.03" width="3.20" shape="213.60,208.00 211.15,208.35 209.40,209.40 208.35,211.15 208.00,213.60"/>
    </edge>
    <edge id=":001_001_6" function="internal">
        <lane id=":001_001_6_0" index="0" speed="13.89" length="27.20" width="3.20" shape="213.60,208.00 186.40,208.00"/>
        <lane id=":001_001_6_1" index="1" speed="13.89" length="27.20" width="3.20" shape="213.60,204.80 186.40,204.80"/>
        <lane id=":001_001_6_2" index="2" speed="13.89" length="27.20" width="3.20" shape="213.60,201.60 186.40,201.60"/>
    </edge>
    <edge id=":001_001_9" function="internal">
        <lane id=":001_001_9_0" index="0" speed="10.36" length="7.98" width="3.20" shape="213.60,201.60 206.95,200.65 205.87,200.00"/>
    </edge>
    <edge id=":001_001_21" function="internal">
        <lane id=":001_001_21_0" index="0" speed="10.36" length="16.53" width="3.20" shape="205.87,200.00 202.20,197.80 199.35,193.05 198.40,186.40"/>
    </edge>
    <edge id=":001_001_10" function="internal">
        <lane id=":001_001_10_0" index="0" speed="6.51" length="9.03" width="3.20" shape="208.00,186.40 208.35,188.85 209.40,190.60 211.15,191.65 213.60,192.00"/>
    </edge>
    <edge id=":001_001_11" function="internal">
        <lane id=":001_001_11_0" index="0" speed="13.89" length="27.20" width="3.20" shape="208.00,186.40 208.00,213.60"/>
        <lane id=":001_001_11_1" index="1" speed="13.89" length="27.20" width="3.20" shape="204.80,186.40 204.80,213.60"/>
        <lane id=":001_001_11_2" index="2" speed="13.89" length="27.20" width="3.20" shape="201.60,186.40 201.60,213.60"/>
    </edge>
    <edge id=":001_001_14" function="internal">
        <lane id=":001_001_14_0" index="0" speed="10.36" length="7.98" width="3.20" shape="201.60,186.40 200.65,193.05 200.00,194.13"/>
    </edge>
    <edge id=":001_001_22" function="internal">
        <lane id=":001_001_22_0" index="0" speed="10.36" length="16.53" width="3.20" shape="200.00,194.13 197.80,197.80 193.05,200.65 186.40,201.60"/>
    </edge>
    <edge id=":001_001_15" function="internal">
        <lane id=":001_001_15_0" index="0" speed="6.51" length="9.03" width="3.20" shape="186.40,192.00 188.85,191.65 190.60,190.60 191.65,188.85 192.00,186.40"/>
    </edge>
    <edge id=":001_001_16" function="internal">
        <lane id=":001_001_16_0" index="0" speed="13.89" length="27.20" width="3.20" shape="186.40,192.00 213.60,192.00"/>
        <lane id=":001_001_16_1" index="1" speed="13.89" length="27.20" width="3.20" shape="186.40,195.20 213.60,195.20"/>
        <lane id=":001_001_16_2" index="2" speed="13.89" length="27.20" width="3.20" shape="186.40,198.40 213.60,198.40"/>
    </edge>
    <edge id=":001_001_19" function="internal">
        <lane id=":001_001_19_0" index="0" speed="10.36" length="7.98" width="3.20" shape="186.40,198.40 193.05,199.35 194.13,200.00"/>
    </edge>
    <edge id=":001_001_23" function="internal">
        <lane id=":001_001_23_0" index="0" speed="10.36" length="16.53" width="3.20" shape="194.13,200.00 197.80,202.20 200.65,206.95 201.60,213.60"/>
    </edge>
    <edge id=":001_002_0" function="internal">
        <lane id=":001_002_0_0" index="0" speed="6.51" length="9.03" width="3.20" shape="192.00,413.60 191.65,411.15 190.60,409.40 188.85,408.35 186.40,408.00"/>
    </edge>
    <edge id=":001_002_1" function="internal">
        <lane id=":001_002_1_0" index="0" speed="13.89" length="27.20" width="3.20" shape="192.00,413.60 192.00,386.40"/>
        <lane id=":001_002_1_1" index="1" speed="13.89" length="27.20" width="3.20" shape="195.20,413.60 195.20,386.40"/>
        <lane id=":001_002_1_2" index="2" speed="13.89" length="27.20" width="3.20" shape="198.40,413.60 198.40,386.40"/>
    </edge>
    <edge id=":001_002_4" function="internal">
        <lane id=":001_002_4_0" index="0" speed="10.36" length="7.98" width="3.20" shape="198.40,413.60 199.35,406.95 200.00,405.87"/>
    </edge>
    <edge id=":001_002_20" function="internal">
        <lane id=":001_002_20_0" index="0" speed="10.36" length="16.53" width="3.20" shape="200.00,405.87 202.20,402.20 206.95,399.35 213.60,398.40"/>
    </edge>
    <edge id=":001_002_5" function="internal">
        <lane id=":001_002_5_0" index="0" speed="6.51" length="9.03" width="3.20" shape="213.60,408.00 211.15,408.35 209.40,409.40 208.35,411.15 208.00,413.60"/>
    </edge>
    <edge id=":001_002_6" function="internal">
        <lane id=":001_002_6_0" index="0" speed="13.89" length="27.20" width="3.20" shape="213.60,408.00 186.40,408.00"/>
        <lane id=":001_002_6_1" index="1" speed="13.89" length="27.20" width="3.20" shape="213.60,404.80 186.40,404.80"/>
        <lane id=":001_002_6_2" index="2" speed="13.89" length="27.20" width="3.20" shape="213.60,401.60 186.40,401.60"/>
    </edge>
    <edge id=":001_002_9" function="internal">
        <lane id=":001_002_9_0" index="0" speed="10.36" length="7.98" width="3.20" shape="213.60,401.60 206.95,400.65 205.87,400.00"/>
    </edge>
    <edge id=":001_002_21" function="internal">
        <lane id=":001_002_21_0" index="0" speed="10.36" length="16.53" width="3.20" shape="205.87,400.00 202.20,397.80 199.35,393.05 198.40,386.40"/>
    </edge>
    <edge id=":001_002_10" function="internal">
        <lane id=":001_002_10_0" index="0" speed="6.51" length="9.03" width="3.20" shape="208.00,386.40 208.35,388.85 209.40,390.60 211.15,391.65 213.60,392.00"/>
    </edge>
    <edge id=":001_002_11" function="internal">
        <lane id=":001_002_11_0" index="0" speed="13.89" length="27.20" width="3.20" shape="208.00,386.40 208.00,413.60"/>
        <lane id=":001_002_11_1" index="1" speed="13.89" length="27.20" width="3.20" shape="204.80,386.40 204.80,413.60"/>
        <lane id=":001_002_11_2" index="2" speed="13.89" length="27.20" width="3.20" shape="201.60,386.40 201.60,413.60"/>
    </edge>
    <edge id=":001_002_14" function="internal">
        <lane id=":001_002_14_0" index="0" speed="10.36" length="7.98" width="3.20" shape="201.60,386.40 200.65,393.05 200.00,394.13"/>
    </edge>
    <edge id=":001_002_22" function="internal">
        <lane id=":001_002_22_0" index="0" speed="10.36" length="16.53" width="3.20" shape="200.00,394.13 197.80,397.80 193.05,400.65 186.40,401.60"/>
    </edge>
    <edge id=":001_002_15" function="internal">
        <lane id=":001_002_15_0" index="0" speed="6.51" length="9.03" width="3.20" shape="186.40,392.00 188.85,391.65 190.60,390.60 191.65,388.85 192.00,386.40"/>
    </edge>
    <edge id=":001_002_16" function="internal">
        <lane id=":001_002_16_0" index="0" speed="13.89" length="27.20" width="3.20" shape="186.40,392.00 213.60,392.00"/>
        <lane id=":001_002_16_1" index="1" speed="13.89" length="27.20" width="3.20" shape="186.40,395.20 213.60,395.20"/>
        <lane id=":001_002_16_2" index="2" speed="13.89" length="27.20" width="3.20" shape="186.40,398.40 213.60,398.40"/>
    </edge>
    <edge id=":001_002_19" function="internal">
        <lane id=":001_002_19_0" index="0" speed="10.36" length="7.98" width="3.20" shape="186.40,398.40 193.05,399.35 194.13,400.00"/>
    </edge>
    <edge id=":001_002_23" function="internal">
        <lane id=":001_002_23_0" index="0" speed="10.36" length="16.53" width="3.20" shape="194.13,400.00 197.80,402.20 200.65,406.95 201.60,413.60"/>
    </edge>
    <edge id=":002_001_0" function="internal">
        <lane id=":002_001_0_0" index="0" speed="6.51" length="9.03" width="3.20" shape="392.00,213.60 391.65,211.15 390.60,209.40 388.85,208.35 386.40,208.00"/>
    </edge>
    <edge id=":002_001_1" function="internal">
        <lane id=":002_001_1_0" index="0" speed="13.89" length="27.20" width="3.20" shape="392.00,213.60 392.00,186.40"/>
    </edge>
    <edge id=":002_001_2" function="internal">
        <lane id=":002_001_2_0" index="0" speed="11.87" length="6.41" width="3.20" shape="392.00,213.60 393.83,207.45"/>
    </edge>
    <edge id=":002_001_3" function="internal">
        <lane id=":002_001_3_0" index="0" speed="8.00" length="5.93" width="3.20" shape="395.20,213.60 394.65,209.75 393.60,208.00"/>
    </edge>
    <edge id=":002_001_4" function="internal">
        <lane id=":002_001_4_0" index="0" speed="13.89" length="27.20" width="3.20" shape="395.20,213.60 395.20,186.40"/>
    </edge>
    <edge id=":002_001_5" function="internal">
        <lane id=":002_001_5_0" index="0" speed="11.07" length="11.48" width="3.20" shape="395.20,213.60 396.86,207.07 399.64,203.23"/>
    </edge>
    <edge id=":002_001_6" function="internal">
        <lane id=":002_001_6_0" index="0" speed="9.26" length="6.96" width="3.20" shape="398.40,213.60 397.65,208.35 396.80,206.93"/>
    </edge>
    <edge id=":002_001_7" function="internal">
        <lane id=":002_001_7_0" index="0" speed="13.89" length="27.20" width="3.20" shape="398.40,213.60 398.40,186.40"/>
    </edge>
    <edge id=":002_001_8" function="internal">
        <lane id=":002_001_8_0" index="0" speed="10.10" length="5.96" width="3.20" shape="398.40,213.60 399.77,208.20 400.00,207.88"/>
    </edge>
    <edge id=":002_001_28" function="internal">
        <lane id=":002_001_28_0" index="0" speed="11.87" length="26.08" width="3.20" shape="393.83,207.45 394.13,206.48 399.47,199.47 406.48,194.13 413.60,192.00"/>
    </edge>
    <edge id=":002_001_29" function="internal">
        <lane id=":002_001_29_0" index="0" speed="8.00" length="8.26" width="3.20" shape="393.60,208.00 393.00,207.00 390.25,205.35 386.40,204.80"/>
    </edge>
    <edge id=":002_001_30" function="internal">
        <lane id=":002_001_30_0" index="0" speed="11.07" length="16.62" width="3.20" shape="399.64,203.23 401.15,201.15 407.07,196.86 413.60,195.20"/>
    </edge>
    <edge id=":002_001_31" function="internal">
        <lane id=":002_001_31_0" index="0" speed="9.26" length="12.40" width="3.20" shape="396.80,206.93 395.40,204.60 391.65,202.35 386.40,201.60"/>
    </edge>
    <edge id=":002_001_32" function="internal">
        <lane id=":002_001_32_0" index="0" speed="10.10" length="17.25" width="3.20" shape="400.00,207.88 403.31,203.31 408.20,199.77 413.60,198.40"/>
    </edge>
    <edge id=":002_001_9" function="internal">
        <lane id=":002_001_9_0" index="0" speed="6.51" length="9.03" width="3.20" shape="413.60,208.00 411.15,208.35 409.40,209.40 408.35,211.15 408.00,213.60"/>
    </edge>
    <edge id=":002_001_10" function="internal">
        <lane id=":002_001_10_0" index="0" speed="13.89" length="27.20" width="3.20" shape="413.60,208.00 386.40,208.00"/>
        <lane id=":002_001_10_1" index="1" speed="13.89" length="27.20" width="3.20" shape="413.60,204.80 386.40,204.80"/>
        <lane id=":002_001_10_2" index="2" speed="13.89" length="27.20" width="3.20" shape="413.60,201.60 386.40,201.60"/>
    </edge>
    <edge id=":002_001_13" function="internal">
        <lane id=":002_001_13_0" index="0" speed="10.36" length="7.98" width="3.20" shape="413.60,201.60 406.95,200.65 405.87,200.00"/>
    </edge>
    <edge id=":002_001_33" function="internal">
        <lane id=":002_001_33_0" index="0" speed="10.36" length="16.53" width="3.20" shape="405.87,200.00 402.20,197.80 399.35,193.05 398.40,186.40"/>
    </edge>
    <edge id=":002_001_14" function="internal">
        <lane id=":002_001_14_0" index="0" speed="6.51" length="9.03" width="3.20" shape="408.00,186.40 408.35,188.85 409.40,190.60 411.15,191.65 413.60,192.00"/>
    </edge>
    <edge id=":002_001_15" function="internal">
        <lane id=":002_001_15_0" index="0" speed="13.89" length="27.20" width="3.20" shape="408.00,186.40 408.00,213.60"/>
    </edge>
    <edge id=":002_001_16" function="internal">
        <lane id=":002_001_16_0" index="0" speed="11.87" length="6.41" width="3.20" shape="408.00,186.40 406.17,192.55"/>
    </edge>
    <edge id=":002_001_17" function="internal">
        <lane id=":002_001_17_0" index="0" speed="8.00" length="5.93" width="3.20" shape="404.80,186.40 405.35,190.25 406.40,192.00"/>
    </edge>
    <edge id=":002_001_18" function="internal">
        <lane id=":002_001_18_0" index="0" speed="13.89" length="27.20" width="3.20" shape="404.80,186.40 404.80,213.60"/>
    </edge>
    <edge id=":002_001_19" function="internal">
        <lane id=":002_001_19_0" index="0" speed="11.07" length="11.48" width="3.20" shape="404.80,186.40 403.14,192.93 400.36,196.77"/>
    </edge>
    <edge id=":002_001_20" function="internal">
        <lane id=":002_001_20_0" index="0" speed="9.26" length="6.96" width="3.20" shape="401.60,186.40 402.35,191.65 403.20,193.07"/>
    </edge>
    <edge id=":002_001_21" function="internal">
        <lane id=":002_001_21_0" index="0" speed="13.89" length="27.20" width="3.20" shape="401.60,186.40 401.60,213.60"/>
    </edge>
    <edge id=":002_001_22" function="internal">
        <lane id=":002_001_22_0" index="0" speed="10.10" length="5.96" width="3.20" shape="401.60,186.40 400.23,191.80 400.00,192.12"/>
    </edge>
    <edge id=":002_001_34" function="internal">
        <lane id=":002_001_34_0" index="0" speed="11.87" length="26.08" width="3.20" shape="406.17,192.55 405.88,193.52 400.53,200.53 393.52,205.88 386.40,208.00"/>
    </edge>
    <edge id=":002_001_35" function="internal">
        <lane id=":002_001_35_0" index="0" speed="8.00" length="8.26" width="3.20" shape="406.40,192.00 407.00,193.00 409.75,194.65 413.60,195.20"/>
    </edge>
    <edge id=":002_001_36" function="internal">
        <lane id=":002_001_36_0" index="0" speed="11.07" length="16.62" width="3.20" shape="400.36,196.77 398.85,198.85 392.93,203.14 386.40,204.80"/>
    </edge>
    <edge id=":002_001_37" function="internal">
        <lane id=":002_001_37_0" index="0" speed="9.26" length="12.40" width="3.20" shape="403.20,193.07 404.60,195.40 408.35,197.65 413.60,198.40"/>
    </edge>
    <edge id=":002_001_38" function="internal">
        <lane id=":002_001_38_0" index="0" speed="10.10" length="17.25" width="3.20" shape="400.00,192.12 396.69,196.69 391.80,200.23 386.40,201.60"/>
    </edge>
    <edge id=":002_001_23" function="internal">
        <lane id=":002_001_23_0" index="0" speed="6.51" length="9.03" width="3.20" shape="386.40,192.00 388.85,191.65 390.60,190.60 391.65,188.85 392.00,186.40"/>
    </edge>
    <edge id=":002_001_24" function="internal">
        <lane id=":002_001_24_0" index="0" speed="13.89" length="27.20" width="3.20" shape="386.40,192.00 413.60,192.00"/>
        <lane id=":002_001_24_1" index="1" speed="13.89" length="27.20" width="3.20" shape="386.40,195.20 413.60,195.20"/>
        <lane id=":002_001_24_2" index="2" speed="13.89" length="27.20" width="3.20" shape="386.40,198.40 413.60,198.40"/>
    </edge>
    <edge id=":002_001_27" function="internal">
        <lane id=":002_001_27_0" index="0" speed="10.36" length="7.98" width="3.20" shape="386.40,198.40 393.05,199.35 394.13,200.00"/>
    </edge>
    <edge id=":002_001_39" function="internal">
        <lane id=":002_001_39_0" index="0" speed="10.36" length="16.53" width="3.20" shape="394.13,200.00 397.80,202.20 400.65,206.95 401.60,213.60"/>
    </edge>
    <edge id=":002_002_0" function="internal">
        <lane id=":002_002_0_0" index="0" speed="6.51" length="9.03" width="3.20" shape="392.00,413.60 391.65,411.15 390.60,409.40 388.85,408.35 386.40,408.00"/>
    </edge>
    <edge id=":002_002_1" function="internal">
        <lane id=":002_002_1_0" index="0" speed="13.89" length="27.20" width="3.20" shape="392.00,413.60 392.00,386.40"/>
        <lane id=":002_002_1_1" index="1" speed="13.89" length="27.20" width="3.20" shape="395.20,413.60 395.20,386.40"/>
        <lane id=":002_002_1_2" index="2" speed="13.89" length="27.20" width="3.20" shape="398.40,413.60 398.40,386.40"/>
    </edge>
    <edge id=":002_002_4" function="internal">
        <lane id=":002_002_4_0" index="0" speed="10.36" length="7.98" width="3.20" shape="398.40,413.60 399.35,406.95 400.00,405.87"/>
    </edge>
    <edge id=":002_002_20" function="internal">
        <lane id=":002_002_20_0" index="0" speed="10.36" length="16.53" width="3.20" shape="400.00,405.87 402.20,402.20 406.95,399.35 413.60,398.40"/>
    </edge>
    <edge id=":002_002_5" function="internal">
        <lane id=":002_002_5_0" index="0" speed="6.51" length="9.03" width="3.20" shape="413.60,408.00 411.15,408.35 409.40,409.40 408.35,411.15 408.00,413.60"/>
    </edge>
    <edge id=":002_002_6" function="internal">
        <lane id=":002_002_6_0" index="0" speed="13.89" length="27.20" width="3.20" shape="413.60,408.00 386.40,408.00"/>
        <lane id=":002_002_6_1" index="1" speed="13.89" length="27.20" width="3.20" shape="413.60,404.80 386.40,404.80"/>
        <lane id=":002_002_6_2" index="2" speed="13.89" length="27.20" width="3.20" shape="413.60,401.60 386.40,401.60"/>
    </edge>
    <edge id=":002_002_9" function="internal">
        <lane id=":002_002_9_0" index="0" speed="10.36" length="7.98" width="3.20" shape="413.60,401.60 406.95,400.65 405.87,400.00"/>
    </edge>
    <edge id=":002_002_21" function="internal">
        <lane id=":002_002_21_0" index="0" speed="10.36" length="16.53" width="3.20" shape="405.87,400.00 402.20,397.80 399.35,393.05 398.40,386.40"/>
    </edge>
    <edge id=":002_002_10" function="internal">
        <lane id=":002_002_10_0" index="0" speed="6.51" length="9.03" width="3.20" shape="408.00,386.40 408.35,388.85 409.40,390.60 411.15,391.65 413.60,392.00"/>
    </edge>
    <edge id=":002_002_11" function="internal">
        <lane id=":002_002_11_0" index="0" speed="13.89" length="27.20" width="3.20" shape="408.00,386.40 408.00,413.60"/>
        <lane id=":002_002_11_1" index="1" speed="13.89" length="27.20" width="3.20" shape="404.80,386.40 404.80,413.60"/>
        <lane id=":002_002_11_2" index="2" speed="13.89" length="27.20" width="3.20" shape="401.60,386.40 401.60,413.60"/>
    </edge>
    <edge id=":002_002_14" function="internal">
        <lane id=":002_002_14_0" index="0" speed="10.36" length="7.98" width="3.20" shape="401.60,386.40 400.65,393.05 400.00,394.13"/>
    </edge>
    <edge id=":002_002_22" function="internal">
        <lane id=":002_002_22_0" index="0" speed="10.36" length="16.53" width="3.20" shape="400.00,394.13 397.80,397.80 393.05,400.65 386.40,401.60"/>
    </edge>
    <edge id=":002_002_15" function="internal">
        <lane id=":002_002_15_0" index="0" speed="6.51" length="9.03" width="3.20" shape="386.40,392.00 388.85,391.65 390.60,390.60 391.65,388.85 392.00,386.40"/>
    </edge>
    <edge id=":002_002_16" function="internal">
        <lane id=":002_002_16_0" index="0" speed="13.89" length="27.20" width="3.20" shape="386.40,392.00 413.60,392.00"/>
        <lane id=":002_002_16_1" index="1" speed="13.89" length="27.20" width="3.20" shape="386.40,395.20 413.60,395.20"/>
        <lane id=":002_002_16_2" index="2" speed="13.89" length="27.20" width="3.20" shape="386.40,398.40 413.60,398.40"/>
    </edge>
    <edge id=":002_002_19" function="internal">
        <lane id=":002_002_19_0" index="0" speed="10.36" length="7.98" width="3.20" shape="386.40,398.40 393.05,399.35 394.13,400.00"/>
    </edge>
    <edge id=":002_002_23" function="internal">
        <lane id=":002_002_23_0" index="0" speed="10.36" length="16.53" width="3.20" shape="394.13,400.00 397.80,402.20 400.65,406.95 401.60,413.60"/>
    </edge>

    <edge id="000_001_3" from="001_001" to="000_001" priority="3">
        <lane id="000_001_3_0" index="0" speed="13.89" length="186.40" width="3.20" shape="186.40,208.00 0.00,208.00"/>
        <lane id="000_001_3_1" index="1" speed="13.89" length="186.40" width="3.20" shape="186.40,204.80 0.00,204.80"/>
        <lane id="000_001_3_2" index="2" speed="13.89" length="186.40" width="3.20" shape="186.40,201.60 0.00,201.60"/>
    </edge>
    <edge id="000_002_3" from="001_002" to="000_002" priority="3">
        <lane id="000_002_3_0" index="0" speed="13.89" length="186.40" width="3.20" shape="186.40,408.00 0.00,408.00"/>
        <lane id="000_002_3_1" index="1" speed="13.89" length="186.40" width="3.20" shape="186.40,404.80 0.00,404.80"/>
        <lane id="000_002_3_2" index="2" speed="13.89" length="186.40" width="3.20" shape="186.40,401.60 0.00,401.60"/>
    </edge>
    <edge id="001_000_2" from="001_001" to="001_000" priority="3">
        <lane id="001_000_2_0" index="0" speed="13.89" length="186.40" width="3.20" shape="192.00,186.40 192.00,0.00"/>
        <lane id="001_000_2_1" index="1" speed="13.89" length="186.40" width="3.20" shape="195.20,186.40 195.20,0.00"/>
        <lane id="001_000_2_2" index="2" speed="13.89" length="186.40" width="3.20" shape="198.40,186.40 198.40,0.00"/>
    </edge>
    <edge id="001_001_1" from="000_001" to="001_001" priority="3">
        <lane id="001_001_1_0" index="0" speed="13.89" length="186.40" width="3.20" shape="0.00,192.00 186.40,192.00"/>
        <lane id="001_001_1_1" index="1" speed="13.89" length="186.40" width="3.20" shape="0.00,195.20 186.40,195.20"/>
        <lane id="001_001_1_2" index="2" speed="13.89" length="186.40" width="3.20" shape="0.00,198.40 186.40,198.40"/>
    </edge>
    <edge id="001_001_2" from="001_002" to="001_001" priority="3">
        <lane id="001_001_2_0" index="0" speed="13.89" length="172.80" width="3.20" shape="192.00,386.40 192.00,213.60"/>
        <lane id="001_001_2_1" index="1" speed="13.89" length="172.80" width="3.20" shape="195.20,386.40 195.20,213.60"/>
        <lane id="001_001_2_2" index="2" speed="13.89" length="172.80" width="3.20" shape="198.40,386.40 198.40,213.60"/>
    </edge>
    <edge id="001_001_3" from="002_001" to="001_001" priority="3">
        <lane id="001_001_3_0" index="0" speed="13.89" length="172.80" width="3.20" shape="386.40,208.00 213.60,208.00"/>
        <lane id="001_001_3_1" index="1" speed="13.89" length="172.80" width="3.20" shape="386.40,204.80 213.60,204.80"/>
        <lane id="001_001_3_2" index="2" speed="13.89" length="172.80" width="3.20" shape="386.40,201.60 213.60,201.60"/>
    </edge>
    <edge id="001_001_4" from="001_000" to="001_001" priority="3">
        <lane id="001_001_4_0" index="0" speed="13.89" length="186.40" width="3.20" shape="208.00,0.00 208.00,186.40"/>
        <lane id="001_001_4_1" index="1" speed="13.89" length="186.40" width="3.20" shape="204.80,0.00 204.80,186.40"/>
        <lane id="001_001_4_2" index="2" speed="13.89" length="186.40" width="3.20" shape="201.60,0.00 201.60,186.40"/>
    </edge>
    <edge id="001_002_1" from="000_002" to="001_002" priority="3">
        <lane id="001_002_1_0" index="0" speed="13.89" length="186.40" width="3.20" shape="0.00,392.00 186.40,392.00"/>
        <lane id="001_002_1_1" index="1" speed="13.89" length="186.40" width="3.20" shape="0.00,395.20 186.40,395.20"/>
        <lane id="001_002_1_2" index="2" speed="13.89" length="186.40" width="3.20" shape="0.00,398.40 186.40,398.40"/>
    </edge>
    <edge id="001_002_2" from="001_003" to="001_002" priority="3">
        <lane id="001_002_2_0" index="0" speed="13.89" length="186.40" width="3.20" shape="192.00,600.00 192.00,413.60"/>
        <lane id="001_002_2_1" index="1" speed="13.89" length="186.40" width="3.20" shape="195.20,600.00 195.20,413.60"/>
        <lane id="001_002_2_2" index="2" speed="13.89" length="186.40" width="3.20" shape="198.40,600.00 198.40,413.60"/>
    </edge>
    <edge id="001_002_3" from="002_002" to="001_002" priority="3">
        <lane id="001_002_3_0" index="0" speed="13.89" length="172.80" width="3.20" shape="386.40,408.00 213.60,408.00"/>
        <lane id="001_002_3_1" index="1" speed="13.89" length="172.80" width="3.20" shape="386.40,404.80 213.60,404.80"/>
        <lane id="001_002_3_2" index="2" speed="13.89" length="172.80" width="3.20" shape="386.40,401.60 213.60,401.60"/>
    </edge>
    <edge id="001_002_4" from="001_001" to="001_002" priority="3">
        <lane id="001_002_4_0" index="0" speed="13.89" length="172.80" width="3.20" shape="208.00,213.60 208.00,386.40"/>
        <lane id="001_002_4_1" index="1" speed="13.89" length="172.80" width="3.20" shape="204.80,213.60 204.80,386.40"/>
        <lane id="001_002_4_2" index="2" speed="13.89" length="172.80" width="3.20" shape="201.60,213.60 201.60,386.40"/>
    </edge>
    <edge id="001_003_4" from="001_002" to="001_003" priority="3">
        <lane id="001_003_4_0" index="0" speed="13.89" length="186.40" width="3.20" shape="208.00,413.60 208.00,600.00"/>
        <lane id="001_003_4_1" index="1" speed="13.89" length="186.40" width="3.20" shape="204.80,413.60 204.80,600.00"/>
        <lane id="001_003_4_2" index="2" speed="13.89" length="186.40" width="3.20" shape="201.60,413.60 201.60,600.00"/>
    </edge>
    <edge id="002_000_2" from="002_001" to="002_000" priority="3">
        <lane id="002_000_2_0" index="0" speed="13.89" length="186.40" width="3.20" shape="392.00,186.40 392.00,0.00"/>
        <lane id="002_000_2_1" index="1" speed="13.89" length="186.40" width="3.20" shape="395.20,186.40 395.20,0.00"/>
        <lane id="002_000_2_2" index="2" speed="13.89" length="186.40" width="3.20" shape="398.40,186.40 398.40,0.00"/>
    </edge>
    <edge id="002_001_1" from="001_001" to="002_001" priority="3">
        <lane id="002_001_1_0" index="0" speed="13.89" length="172.80" width="3.20" shape="213.60,192.00 386.40,192.00"/>
        <lane id="002_001_1_1" index="1" speed="13.89" length="172.80" width="3.20" shape="213.60,195.20 386.40,195.20"/>
        <lane id="002_001_1_2" index="2" speed="13.89" length="172.80" width="3.20" shape="213.60,198.40 386.40,198.40"/>
    </edge>
    <edge id="002_001_2" from="002_002" to="002_001" priority="3">
        <lane id="002_001_2_0" index="0" speed="13.89" length="172.80" width="3.20" shape="392.00,386.40 392.00,213.60"/>
        <lane id="002_001_2_1" index="1" speed="13.89" length="172.80" width="3.20" shape="395.20,386.40 395.20,213.60"/>
        <lane id="002_001_2_2" index="2" speed="13.89" length="172.80" width="3.20" shape="398.40,386.40 398.40,213.60"/>
    </edge>
    <edge id="002_001_3" from="003_001" to="002_001" priority="3">
        <lane id="002_001_3_0" index="0" speed="13.89" length="186.40" width="3.20" shape="600.00,208.00 413.60,208.00"/>
        <lane id="002_001_3_1" index="1" speed="13.89" length="186.40" width="3.20" shape="600.00,204.80 413.60,204.80"/>
        <lane id="002_001_3_2" index="2" speed="13.89" length="186.40" width="3.20" shape="600.00,201.60 413.60,201.60"/>
    </edge>
    <edge id="002_001_4" from="002_000" to="002_001" priority="3">
        <lane id="002_001_4_0" index="0" speed="13.89" length="186.40" width="3.20" shape="408.00,0.00 408.00,186.40"/>
        <lane id="002_001_4_1" index="1" speed="13.89" length="186.40" width="3.20" shape="404.80,0.00 404.80,186.40"/>
        <lane id="002_001_4_2" index="2" speed="13.89" length="186.40" width="3.20" shape="401.60,0.00 401.60,186.40"/>
    </edge>
    <edge id="002_002_1" from="001_002" to="002_002" priority="3">
        <lane id="002_002_1_0" index="0" speed="13.89" length="172.80" width="3.20" shape="213.60,392.00 386.40,392.00"/>
        <lane id="002_002_1_1" index="1" speed="13.89" length="172.80" width="3.20" shape="213.60,395.20 386.40,395.20"/>
        <lane id="002_002_1_2" index="2" speed="13.89" length="172.80" width="3.20" shape="213.60,398.40 386.40,398.40"/>
    </edge>
    <edge id="002_002_2" from="002_003" to="002_002" priority="3">
        <lane id="002_002_2_0" index="0" speed="13.89" length="186.40" width="3.20" shape="392.00,600.00 392.00,413.60"/>