<?xml version="1.0" encoding="UTF-8"?>

<!-- generated on Thu Mar 26 22:39:54 2020 by Eclipse SUMO netconvert Version 1.4.0
<configuration xmlns:xsi="http://www.w3.org/2001/XMLSchema-instance" xsi:noNamespaceSchemaLocation="http://sumo.dlr.de/xsd/netconvertConfiguration.xsd">

    <input>
        <node-files value="lane.node.xml"/>
        <edge-files value="lane.edge.xml"/>
    </input>

    <output>
        <output-file value="hello.net.xml"/>
    </output>

    <report>
        <aggregate-warnings value="5"/>
    </report>

</configuration>
-->

<net version="1.3" junctionCornerDetail="5" limitTurnSpeed="5.50" xmlns:xsi="http://www.w3.org/2001/XMLSchema-instance" xsi:noNamespaceSchemaLocation="http://sumo.dlr.de/xsd/net_file.xsd">

    <location netOffset="0.00,0.00" convBoundary="0.00,0.00,600.00,600.00" origBoundary="0.00,0.00,600.00,600.00" projParameter="!"/>

    <edge id=":node_000_001_0" function="internal">
        <lane id=":node_000_001_0_0" index="0" speed="3.65" length="4.67" shape="0.00,201.60 -1.20,200.80 -1.60,200.00 -1.20,199.20 0.00,198.40"/>
    </edge>
    <edge id=":node_000_002_0" function="internal">
        <lane id=":node_000_002_0_0" index="0" speed="3.65" length="4.67" shape="0.00,401.60 -1.20,400.80 -1.60,400.00 -1.20,399.20 0.00,398.40"/>
    </edge>
    <edge id=":node_001_000_0" function="internal">
        <lane id=":node_001_000_0_0" index="0" speed="3.65" length="4.67" shape="198.40,0.00 199.20,-1.20 200.00,-1.60 200.80,-1.20 201.60,0.00"/>
    </edge>
    <edge id=":node_001_001_0" function="internal">
        <lane id=":node_001_001_0_0" index="0" speed="6.51" length="9.03" shape="192.00,213.60 191.65,211.15 190.60,209.40 188.85,208.35 186.40,208.00"/>
    </edge>
    <edge id=":node_001_001_1" function="internal">
        <lane id=":node_001_001_1_0" index="0" speed="13.89" length="27.20" shape="192.00,213.60 192.00,186.40"/>
        <lane id=":node_001_001_1_1" index="1" speed="13.89" length="27.20" shape="195.20,213.60 195.20,186.40"/>
        <lane id=":node_001_001_1_2" index="2" speed="13.89" length="27.20" shape="198.40,213.60 198.40,186.40"/>
    </edge>
    <edge id=":node_001_001_4" function="internal">
        <lane id=":node_001_001_4_0" index="0" speed="10.36" length="7.98" shape="198.40,213.60 199.35,206.95 200.00,205.87"/>
    </edge>
    <edge id=":node_001_001_5" function="internal">
        <lane id=":node_001_001_5_0" index="0" speed="3.65" length="2.34" shape="198.40,213.60 199.20,212.40 200.00,212.00"/>
    </edge>
    <edge id=":node_001_001_24" function="internal">
        <lane id=":node_001_001_24_0" index="0" speed="10.36" length="16.53" shape="200.00,205.87 202.20,202.20 206.95,199.35 213.60,198.40"/>
    </edge>
    <edge id=":node_001_001_25" function="internal">
        <lane id=":node_001_001_25_0" index="0" speed="3.65" length="2.34" shape="200.00,212.00 200.80,212.40 201.60,213.60"/>
    </edge>
    <edge id=":node_001_001_6" function="internal">
        <lane id=":node_001_001_6_0" index="0" speed="6.51" length="9.03" shape="213.60,208.00 211.15,208.35 209.40,209.40 208.35,211.15 208.00,213.60"/>
    </edge>
    <edge id=":node_001_001_7" function="internal">
        <lane id=":node_001_001_7_0" index="0" speed="13.89" length="27.20" shape="213.60,208.00 186.40,208.00"/>
        <lane id=":node_001_001_7_1" index="1" speed="13.89" length="27.20" shape="213.60,204.80 186.40,204.80"/>
        <lane id=":node_001_001_7_2" index="2" speed="13.89" length="27.20" shape="213.60,201.60 186.40,201.60"/>
    </edge>
    <edge id=":node_001_001_10" function="internal">
        <lane id=":node_001_001_10_0" index="0" speed="10.36" length="24.51" shape="213.60,201.60 206.95,200.65 202.20,197.80 199.35,193.05 198.40,186.40"/>
    </edge>
    <edge id=":node_001_001_11" function="internal">
        <lane id=":node_001_001_11_0" index="0" speed="3.65" length="4.67" shape="213.60,201.60 212.40,200.80 212.00,200.00 212.40,199.20 213.60,198.40"/>
    </edge>
    <edge id=":node_001_001_12" function="internal">
        <lane id=":node_001_001_12_0" index="0" speed="6.51" length="9.03" shape="208.00,186.40 208.35,188.85 209.40,190.60 211.15,191.65 213.60,192.00"/>
    </edge>
    <edge id=":node_001_001_13" function="internal">
        <lane id=":node_001_001_13_0" index="0" speed="13.89" length="27.20" shape="208.00,186.40 208.00,213.60"/>
        <lane id=":node_001_001_13_1" index="1" speed="13.89" length="27.20" shape="204.80,186.40 204.80,213.60"/>
        <lane id=":node_001_001_13_2" index="2" speed="13.89" length="27.20" shape="201.60,186.40 201.60,213.60"/>
    </edge>
    <edge id=":node_001_001_16" function="internal">
        <lane id=":node_001_001_16_0" index="0" speed="10.36" length="7.98" shape="201.60,186.40 200.65,193.05 200.00,194.13"/>
    </edge>
    <edge id=":node_001_001_17" function="internal">
        <lane id=":node_001_001_17_0" index="0" speed="3.65" length="2.34" shape="201.60,186.40 200.80,187.60 200.00,188.00"/>
    </edge>
    <edge id=":node_001_001_26" function="internal">
        <lane id=":node_001_001_26_0" index="0" speed="10.36" length="16.53" shape="200.00,194.13 197.80,197.80 193.05,200.65 186.40,201.60"/>
    </edge>
    <edge id=":node_001_001_27" function="internal">
        <lane id=":node_001_001_27_0" index="0" speed="3.65" length="2.34" shape="200.00,188.00 199.20,187.60 198.40,186.40"/>
    </edge>
    <edge id=":node_001_001_18" function="internal">
        <lane id=":node_001_001_18_0" index="0" speed="6.51" length="9.03" shape="186.40,192.00 188.85,191.65 190.60,190.60 191.65,188.85 192.00,186.40"/>
    </edge>
    <edge id=":node_001_001_19" function="internal">
        <lane id=":node_001_001_19_0" index="0" speed="13.89" length="27.20" shape="186.40,192.00 213.60,192.00"/>
        <lane id=":node_001_001_19_1" index="1" speed="13.89" length="27.20" shape="186.40,195.20 213.60,195.20"/>
        <lane id=":node_001_001_19_2" index="2" speed="13.89" length="27.20" shape="186.40,198.40 213.60,198.40"/>
    </edge>
    <edge id=":node_001_001_22" function="internal">
        <lane id=":node_001_001_22_0" index="0" speed="10.36" length="24.51" shape="186.40,198.40 193.05,199.35 197.80,202.20 200.65,206.95 201.60,213.60"/>
    </edge>
    <edge id=":node_001_001_23" function="internal">
        <lane id=":node_001_001_23_0" index="0" speed="3.65" length="4.67" shape="186.40,198.40 187.60,199.20 188.00,200.00 187.60,200.80 186.40,201.60"/>
    </edge>
    <edge id=":node_001_002_0" function="internal">
        <lane id=":node_001_002_0_0" index="0" speed="6.51" length="9.03" shape="192.00,413.60 191.65,411.15 190.60,409.40 188.85,408.35 186.40,408.00"/>
    </edge>
    <edge id=":node_001_002_1" function="internal">
        <lane id=":node_001_002_1_0" index="0" speed="13.89" length="27.20" shape="192.00,413.60 192.00,386.40"/>
        <lane id=":node_001_002_1_1" index="1" speed="13.89" length="27.20" shape="195.20,413.60 195.20,386.40"/>
        <lane id=":node_001_002_1_2" index="2" speed="13.89" length="27.20" shape="198.40,413.60 198.40,386.40"/>
    </edge>
    <edge id=":node_001_002_4" function="internal">
        <lane id=":node_001_002_4_0" index="0" speed="10.36" length="7.98" shape="198.40,413.60 199.35,406.95 200.00,405.87"/>
    </edge>
    <edge id=":node_001_002_5" function="internal">
        <lane id=":node_001_002_5_0" index="0" speed="3.65" length="2.34" shape="198.40,413.60 199.20,412.40 200.00,412.00"/>
    </edge>
    <edge id=":node_001_002_24" function="internal">
        <lane id=":node_001_002_24_0" index="0" speed="10.36" length="16.53" shape="200.00,405.87 202.20,402.20 206.95,399.35 213.60,398.40"/>
    </edge>
    <edge id=":node_001_002_25" function="internal">
        <lane id=":node_001_002_25_0" index="0" speed="3.65" length="2.34" shape="200.00,412.00 200.80,412.40 201.60,413.60"/>
    </edge>
    <edge id=":node_001_002_6" function="internal">
        <lane id=":node_001_002_6_0" index="0" speed="6.51" length="9.03" shape="213.60,408.00 211.15,408.35 209.40,409.40 208.35,411.15 208.00,413.60"/>
    </edge>
    <edge id=":node_001_002_7" function="internal">
        <lane id=":node_001_002_7_0" index="0" speed="13.89" length="27.20" shape="213.60,408.00 186.40,408.00"/>
        <lane id=":node_001_002_7_1" index="1" speed="13.89" length="27.20" shape="213.60,404.80 186.40,404.80"/>
        <lane id=":node_001_002_7_2" index="2" speed="13.89" length="27.20" shape="213.60,401.60 186.40,401.60"/>
    </edge>
    <edge id=":node_001_002_10" function="internal">
        <lane id=":node_001_002_10_0" index="0" speed="10.36" length="24.51" shape="213.60,401.60 206.95,400.65 202.20,397.80 199.35,393.05 198.40,386.40"/>
    </edge>
    <edge id=":node_001_002_11" function="internal">
        <lane id=":node_001_002_11_0" index="0" speed="3.65" length="4.67" shape="213.60,401.60 212.40,400.80 212.00,400.00 212.40,399.20 213.60,398.40"/>
    </edge>
    <edge id=":node_001_002_12" function="internal">
        <lane id=":node_001_002_12_0" index="0" speed="6.51" length="9.03" shape="208.00,386.40 208.35,388.85 209.40,390.60 211.15,391.65 213.60,392.00"/>
    </edge>
    <edge id=":node_001_002_13" function="internal">
        <lane id=":node_001_002_13_0" index="0" speed="13.89" length="27.20" shape="208.00,386.40 208.00,413.60"/>
        <lane id=":node_001_002_13_1" index="1" speed="13.89" length="27.20" shape="204.80,386.40 204.80,413.60"/>
        <lane id=":node_001_002_13_2" index="2" speed="13.89" length="27.20" shape="201.60,386.40 201.60,413.60"/>
    </edge>
    <edge id=":node_001_002_16" function="internal">
        <lane id=":node_001_002_16_0" index="0" speed="10.36" length="7.98" shape="201.60,386.40 200.65,393.05 200.00,394.13"/>
    </edge>
    <edge id=":node_001_002_17" function="internal">
        <lane id=":node_001_002_17_0" index="0" speed="3.65" length="2.34" shape="201.60,386.40 200.80,387.60 200.00,388.00"/>
    </edge>
    <edge id=":node_001_002_26" function="internal">
        <lane id=":node_001_002_26_0" index="0" speed="10.36" length="16.53" shape="200.00,394.13 197.80,397.80 193.05,400.65 186.40,401.60"/>
    </edge>
    <edge id=":node_001_002_27" function="internal">
        <lane id=":node_001_002_27_0" index="0" speed="3.65" length="2.34" shape="200.00,388.00 199.20,387.60 198.40,386.40"/>
    </edge>
    <edge id=":node_001_002_18" function="internal">
        <lane id=":node_001_002_18_0" index="0" speed="6.51" length="9.03" shape="186.40,392.00 188.85,391.65 190.60,390.60 191.65,388.85 192.00,386.40"/>
    </edge>
    <edge id=":node_001_002_19" function="internal">
        <lane id=":node_001_002_19_0" index="0" speed="13.89" length="27.20" shape="186.40,392.00 213.60,392.00"/>
        <lane id=":node_001_002_19_1" index="1" speed="13.89" length="27.20" shape="186.40,395.20 213.60,395.20"/>
        <lane id=":node_001_002_19_2" index="2" speed="13.89" length="27.20" shape="186.40,398.40 213.60,398.40"/>
    </edge>
    <edge id=":node_001_002_22" function="internal">
        <lane id=":node_001_002_22_0" index="0" speed="10.36" length="24.51" shape="186.40,398.40 193.05,399.35 197.80,402.20 200.65,406.95 201.60,413.60"/>
    </edge>
    <edge id=":node_001_002_23" function="internal">
        <lane id=":node_001_002_23_0" index="0" speed="3.65" length="4.67" shape="186.40,398.40 187.60,399.20 188.00,400.00 187.60,400.80 186.40,401.60"/>
    </edge>
    <edge id=":node_001_003_0" function="internal">
        <lane id=":node_001_003_0_0" index="0" speed="3.65" length="4.67" shape="201.60,600.00 200.80,601.20 200.00,601.60 199.20,601.20 198.40,600.00"/>
    </edge>
    <edge id=":node_002_000_0" function="internal">
        <lane id=":node_002_000_0_0" index="0" speed="3.65" length="4.67" shape="398.40,0.00 399.20,-1.20 400.00,-1.60 400.80,-1.20 401.60,0.00"/>
    </edge>
    <edge id=":node_002_001_0" function="internal">
        <lane id=":node_002_001_0_0" index="0" speed="6.51" length="9.03" shape="392.00,213.60 391.65,211.15 390.60,209.40 388.85,208.35 386.40,208.00"/>
    </edge>
    <edge id=":node_002_001_1" function="internal">
        <lane id=":node_002_001_1_0" index="0" speed="13.89" length="27.20" shape="392.00,213.60 392.00,186.40"/>
        <lane id=":node_002_001_1_1" index="1" speed="13.89" length="27.20" shape="395.20,213.60 395.20,186.40"/>
        <lane id=":node_002_001_1_2" index="2" speed="13.89" length="27.20" shape="398.40,213.60 398.40,186.40"/>
    </edge>
    <edge id=":node_002_001_4" function="internal">
        <lane id=":node_002_001_4_0" index="0" speed="10.36" length="7.98" shape="398.40,213.60 399.35,206.95 400.00,205.87"/>
    </edge>
    <edge id=":node_002_001_5" function="internal">
        <lane id=":node_002_001_5_0" index="0" speed="3.65" length="2.34" shape="398.40,213.60 399.20,212.40 400.00,212.00"/>
    </edge>
    <edge id=":node_002_001_24" function="internal">
        <lane id=":node_002_001_24_0" index="0" speed="10.36" length="16.53" shape="400.00,205.87 402.20,202.20 406.95,199.35 413.60,198.40"/>
    </edge>
    <edge id=":node_002_001_25" function="internal">
        <lane id=":node_002_001_25_0" index="0" speed="3.65" length="2.34" shape="400.00,212.00 400.80,212.40 401.60,213.60"/>
    </edge>
    <edge id=":node_002_001_6" function="internal">
        <lane id=":node_002_001_6_0" index="0" speed="6.51" length="9.03" shape="413.60,208.00 411.15,208.35 409.40,209.40 408.35,211.15 408.00,213.60"/>
    </edge>
    <edge id=":node_002_001_7" function="internal">
        <lane id=":node_002_001_7_0" index="0" speed="13.89" length="27.20" shape="413.60,208.00 386.40,208.00"/>
        <lane id=":node_002_001_7_1" index="1" speed="13.89" length="27.20" shape="413.60,204.80 386.40,204.80"/>
        <lane id=":node_002_001_7_2" index="2" speed="13.89" length="27.20" shape="413.60,201.60 386.40,201.60"/>
    </edge>
    <edge id=":node_002_001_10" function="internal">
        <lane id=":node_002_001_10_0" index="0" speed="10.36" length="24.51" shape="413.60,201.60 406.95,200.65 402.20,197.80 399.35,193.05 398.40,186.40"/>
    </edge>
    <edge id=":node_002_001_11" function="internal">
        <lane id=":node_002_001_11_0" index="0" speed="3.65" length="4.67" shape="413.60,201.60 412.40,200.80 412.00,200.00 412.40,199.20 413.60,198.40"/>
    </edge>
    <edge id=":node_002_001_12" function="internal">
        <lane id=":node_002_001_12_0" index="0" speed="6.51" length="9.03" shape="408.00,186.40 408.35,188.85 409.40,190.60 411.15,191.65 413.60,192.00"/>
    </edge>
    <edge id=":node_002_001_13" function="internal">
        <lane id=":node_002_001_13_0" index="0" speed="13.89" length="27.20" shape="408.00,186.40 408.00,213.60"/>
        <lane id=":node_002_001_13_1" index="1" speed="13.89" length="27.20" shape="404.80,186.40 404.80,213.60"/>
        <lane id=":node_002_001_13_2" index="2" speed="13.89" length="27.20" shape="401.60,186.40 401.60,213.60"/>
    </edge>
    <edge id=":node_002_001_16" function="internal">
        <lane id=":node_002_001_16_0" index="0" speed="10.36" length="7.98" shape="401.60,186.40 400.65,193.05 400.00,194.13"/>
    </edge>
    <edge id=":node_002_001_17" function="internal">
        <lane id=":node_002_001_17_0" index="0" speed="3.65" length="2.34" shape="401.60,186.40 400.80,187.60 400.00,188.00"/>
    </edge>
    <edge id=":node_002_001_26" function="internal">
        <lane id=":node_002_001_26_0" index="0" speed="10.36" length="16.53" shape="400.00,194.13 397.80,197.80 393.05,200.65 386.40,201.60"/>
    </edge>
    <edge id=":node_002_001_27" function="internal">
        <lane id=":node_002_001_27_0" index="0" speed="3.65" length="2.34" shape="400.00,188.00 399.20,187.60 398.40,186.40"/>
    </edge>
    <edge id=":node_002_001_18" function="internal">
        <lane id=":node_002_001_18_0" index="0" speed="6.51" length="9.03" shape="386.40,192.00 388.85,191.65 390.60,190.60 391.65,188.85 392.00,186.40"/>
    </edge>
    <edge id=":node_002_001_19" function="internal">
        <lane id=":node_002_001_19_0" index="0" speed="13.89" length="27.20" shape="386.40,192.00 413.60,192.00"/>
        <lane id=":node_002_001_19_1" index="1" speed="13.89" length="27.20" shape="386.40,195.20 413.60,195.20"/>
        <lane id=":node_002_001_19_2" index="2" speed="13.89" length="27.20" shape="386.40,198.40 413.60,198.40"/>
    </edge>
    <edge id=":node_002_001_22" function="internal">
        <lane id=":node_002_001_22_0" index="0" speed="10.36" length="24.51" shape="386.40,198.40 393.05,199.35 397.80,202.20 400.65,206.95 401.60,213.60"/>
    </edge>
    <edge id=":node_002_001_23" function="internal">
        <lane id=":node_002_001_23_0" index="0" speed="3.65" length="4.67" shape="386.40,198.40 387.60,199.20 388.00,200.00 387.60,200.80 386.40,201.60"/>
    </edge>
    <edge id=":node_002_002_0" function="internal">
        <lane id=":node_002_002_0_0" index="0" speed="6.51" length="9.03" shape="392.00,413.60 391.65,411.15 390.60,409.40 388.85,408.35 386.40,408.00"/>
    </edge>
    <edge id=":node_002_002_1" function="internal">
        <lane id=":node_002_002_1_0" index="0" speed="13.89" length="27.20" shape="392.00,413.60 392.00,386.40"/>
        <lane id=":node_002_002_1_1" index="1" speed="13.89" length="27.20" shape="395.20,413.60 395.20,386.40"/>
        <lane id=":node_002_002_1_2" index="2" speed="13.89" length="27.20" shape="398.40,413.60 398.40,386.40"/>
    </edge>
    <edge id=":node_002_002_4" function="internal">
        <lane id=":node_002_002_4_0" index="0" speed="10.36" length="7.98" shape="398.40,413.60 399.35,406.95 400.00,405.87"/>
    </edge>
    <edge id=":node_002_002_5" function="internal">
        <lane id=":node_002_002_5_0" index="0" speed="3.65" length="2.34" shape="398.40,413.60 399.20,412.40 400.00,412.00"/>
    </edge>
    <edge id=":node_002_002_24" function="internal">
        <lane id=":node_002_002_24_0" index="0" speed="10.36" length="16.53" shape="400.00,405.87 402.20,402.20 406.95,399.35 413.60,398.40"/>
    </edge>
    <edge id=":node_002_002_25" function="internal">
        <lane id=":node_002_002_25_0" index="0" speed="3.65" length="2.34" shape="400.00,412.00 400.80,412.40 401.60,413.60"/>
    </edge>
    <edge id=":node_002_002_6" function="internal">
        <lane id=":node_002_002_6_0" index="0" speed="6.51" length="9.03" shape="413.60,408.00 411.15,408.35 409.40,409.40 408.35,411.15 408.00,413.60"/>
    </edge>
    <edge id=":node_002_002_7" function="internal">
        <lane id=":node_002_002_7_0" index="0" speed="13.89" length="27.20" shape="413.60,408.00 386.40,408.00"/>
        <lane id=":node_002_002_7_1" index="1" speed="13.89" length="27.20" shape="413.60,404.80 386.40,404.80"/>
        <lane id=":node_002_002_7_2" index="2" speed="13.89" length="27.20" shape="413.60,401.60 386.40,401.60"/>
    </edge>
    <edge id=":node_002_002_10" function="internal">
        <lane id=":node_002_002_10_0" index="0" speed="10.36" length="24.51" shape="413.60,401.60 406.95,400.65 402.20,397.80 399.35,393.05 398.40,386.40"/>
    </edge>
    <edge id=":node_002_002_11" function="internal">
        <lane id=":node_002_002_11_0" index="0" speed="3.65" length="4.67" shape="413.60,401.60 412.40,400.80 412.00,400.00 412.40,399.20 413.60,398.40"/>
    </edge>
    <edge id=":node_002_002_12" function="internal">
        <lane id=":node_002_002_12_0" index="0" speed="6.51" length="9.03" shape="408.00,386.40 408.35,388.85 409.40,390.60 411.15,391.65 413.60,392.00"/>
    </edge>
    <edge id=":node_002_002_13" function="internal">
        <lane id=":node_002_002_13_0" index="0" speed="13.89" length="27.20" shape="408.00,386.40 408.00,413.60"/>
        <lane id=":node_002_002_13_1" index="1" speed="13.89" length="27.20" shape="404.80,386.40 404.80,413.60"/>
        <lane id=":node_002_002_13_2" index="2" speed="13.89" length="27.20" shape="401.60,386.40 401.60,413.60"/>
    </edge>
    <edge id=":node_002_002_16" function="internal">
        <lane id=":node_002_002_16_0" index="0" speed="10.36" length="7.98" shape="401.60,386.40 400.65,393.05 400.00,394.13"/>
    </edge>
    <edge id=":node_002_002_17" function="internal">
        <lane id=":node_002_002_17_0" index="0" speed="3.65" length="2.34" shape="401.60,386.40 400.80,387.60 400.00,388.00"/>
    </edge>
    <edge id=":node_002_002_26" function="internal">
        <lane id=":node_002_002_26_0" index="0" speed="10.36" length="16.53" shape="400.00,394.13 397.80,397.80 393.05,400.65 386.40,401.60"/>
    </edge>
    <edge id=":node_002_002_27" function="internal">
        <lane id=":node_002_002_27_0" index="0" speed="3.65" length="2.34" shape="400.00,388.00 399.20,387.60 398.40,386.40"/>
    </edge>
    <edge id=":node_002_002_18" function="internal">
        <lane id=":node_002_002_18_0" index="0" speed="6.51" length="9.03" shape="386.40,392.00 388.85,391.65 390.60,390.60 391.65,388.85 392.00,386.40"/>
    </edge>
    <edge id=":node_002_002_19" function="internal">
        <lane id=":node_002_002_19_0" index="0" speed="13.89" length="27.20" shape="386.40,392.00 413.60,392.00"/>
        <lane id=":node_002_002_19_1" index="1" speed="13.89" length="27.20" shape="386.40,395.20 413.60,395.20"/>
        <lane id=":node_002_002_19_2" index="2" speed="13.89" length="27.20" shape="386.40,398.40 413.60,398.40"/>
    </edge>
    <edge id=":node_002_002_22" function="internal">
        <lane id=":node_002_002_22_0" index="0" speed="10.36" length="24.51" shape="386.40,398.40 393.05,399.35 397.80,402.20 400.65,406.95 401.60,413.60"/>
    </edge>
    <edge id=":node_002_002_23" function="internal">
        <lane id=":node_002_002_23_0" index="0" speed="3.65" length="4.67" shape="386.40,398.40 387.60,399.20 388.00,400.00 387.60,400.80 386.40,401.60"/>
    </edge>
    <edge id=":node_002_003_0" function="internal">
        <lane id=":node_002_003_0_0" index="0" speed="3.65" length="4.67" shape="401.60,600.00 400.80,601.20 400.00,601.60 399.20,601.20 398.40,600.00"/>
    </edge>
    <edge id=":node_003_001_0" function="internal">
        <lane id=":node_003_001_0_0" index="0" speed="3.65" length="4.67" shape="600.00,198.40 601.20,199.20 601.60,200.00 601.20,200.80 600.00,201.60"/>
    </edge>
    <edge id=":node_003_002_0" function="internal">
        <lane id=":node_003_002_0_0" index="0" speed="3.65" length="4.67" shape="600.00,398.40 601.20,399.20 601.60,400.00 601.20,400.80 600.00,401.60"/>
    </edge>

    <edge id="lane_000_001_0" from="node_001_001" to="node_000_001" priority="3">
        <lane id="lane_000_001_0_0" index="0" speed="13.89" length="186.40" shape="186.40,208.00 0.00,208.00"/>
        <lane id="lane_000_001_0_1" index="1" speed="13.89" length="186.40" shape="186.40,204.80 0.00,204.80"/>
        <lane id="lane_000_001_0_2" index="2" speed="13.89" length="186.40" shape="186.40,201.60 0.00,201.60"/>
    </edge>
    <edge id="lane_000_002_0" from="node_001_002" to="node_000_002" priority="3">
        <lane id="lane_000_002_0_0" index="0" speed="13.89" length="186.40" shape="186.40,408.00 0.00,408.00"/>
        <lane id="lane_000_002_0_1" index="1" speed="13.89" length="186.40" shape="186.40,404.80 0.00,404.80"/>
        <lane id="lane_000_002_0_2" index="2" speed="13.89" length="186.40" shape="186.40,401.60 0.00,401.60"/>
    </edge>
    <edge id="lane_001_000_0" from="node_001_001" to="node_001_000" priority="3">
        <lane id="lane_001_000_0_0" index="0" speed="13.89" length="186.40" shape="192.00,186.40 192.00,0.00"/>
        <lane id="lane_001_000_0_1" index="1" speed="13.89" length="186.40" shape="195.20,186.40 195.20,0.00"/>
        <lane id="lane_001_000_0_2" index="2" speed="13.89" length="186.40" shape="198.40,186.40 198.40,0.00"/>
    </edge>
    <edge id="lane_001_001_1" from="node_000_001" to="node_001_001" priority="3">
        <lane id="lane_001_001_1_0" index="0" speed="13.89" length="186.40" shape="0.00,192.00 186.40,192.00"/>
        <lane id="lane_001_001_1_1" index="1" speed="13.89" length="186.40" shape="0.00,195.20 186.40,195.20"/>
        <lane id="lane_001_001_1_2" index="2" speed="13.89" length="186.40" shape="0.00,198.40 186.40,198.40"/>
    </edge>
    <edge id="lane_001_001_2" from="node_001_002" to="node_001_001" priority="3">
        <lane id="lane_001_001_2_0" index="0" speed="13.89" length="172.80" shape="192.00,386.40 192.00,213.60"/>
        <lane id="lane_001_001_2_1" index="1" speed="13.89" length="172.80" shape="195.20,386.40 195.20,213.60"/>
        <lane id="lane_001_001_2_2" index="2" speed="13.89" length="172.80" shape="198.40,386.40 198.40,213.60"/>
    </edge>
    <edge id="lane_001_001_3" from="node_002_001" to="node_001_001" priority="3">
        <lane id="lane_001_001_3_0" index="0" speed="13.89" length="172.80" shape="386.40,208.00 213.60,208.00"/>
        <lane id="lane_001_001_3_1" index="1" speed="13.89" length="172.80" shape="386.40,204.80 213.60,204.80"/>
        <lane id="lane_001_001_3_2" index="2" speed="13.89" length="172.80" shape="386.40,201.60 213.60,201.60"/>
    </edge>
    <edge id="lane_001_001_4" from="node_001_000" to="node_001_001" priority="3">
        <lane id="lane_001_001_4_0" index="0" speed="13.89" length="186.40" shape="208.00,0.00 208.00,186.40"/>
        <lane id="lane_001_001_4_1" index="1" speed="13.89" length="186.40" shape="204.80,0.00 204.80,186.40"/>
        <lane id="lane_001_001_4_2" index="2" speed="13.89" length="186.40" shape="201.60,0.00 201.60,186.40"/>
    </edge>
    <edge id="lane_001_002_1" from="node_000_002" to="node_001_002" priority="3">
        <lane id="lane_001_002_1_0" index="0" speed="13.89" length="186.40" shape="0.00,392.00 186.40,392.00"/>
        <lane id="lane_001_002_1_1" index="1" speed="13.89" length="186.40" shape="0.00,395.20 186.40,395.20"/>
        <lane id="lane_001_002_1_2" index="2" speed="13.89" length="186.40" shape="0.00,398.40 186.40,398.40"/>
    </edge>
    <edge id="lane_001_002_2" from="node_001_003" to="node_001_002" priority="3">
        <lane id="lane_001_002_2_0" index="0" speed="13.89" length="186.40" shape="192.00,600.00 192.00,413.60"/>
        <lane id="lane_001_002_2_1" index="1" speed="13.89" length="186.40" shape="195.20,600.00 195.20,413.60"/>
        <lane id="lane_001_002_2_2" index="2" speed="13.89" length="186.40" shape="198.40,600.00 198.40,413.60"/>
    </edge>
    <edge id="lane_001_002_3" from="node_002_002" to="node_001_002" priority="3">
        <lane id="lane_001_002_3_0" index="0" speed="13.89" length="172.80" shape="386.40,408.00 213.60,408.00"/>
        <lane id="lane_001_002_3_1" index="1" speed="13.89" length="172.80" shape="386.40,404.80 213.60,404.80"/>
        <lane id="lane_001_002_3_2" index="2" speed="13.89" length="172.80" shape="386.40,401.60 213.60,401.60"/>
    </edge>
    <edge id="lane_001_002_4" from="node_001_001" to="node_001_002" priority="3">
        <lane id="lane_001_002_4_0" index="0" speed="13.89" length="172.80" shape="208.00,213.60 208.00,386.40"/>
        <lane id="lane_001_002_4_1" index="1" speed="13.89" length="172.80" shape="204.80,213.60 204.80,386.40"/>
        <lane id="lane_001_002_4_2" index="2" speed="13.89" length="172.80" shape="201.60,213.60 201.60,386.40"/>
    </edge>
    <edge id="lane_001_003_0" from="node_001_002" to="node_001_003" priority="3">
        <lane id="lane_001_003_0_0" index="0" speed="13.89" length="186.40" shape="208.00,413.60 208.00,600.00"/>
        <lane id="lane_001_003_0_1" index="1" speed="13.89" length="186.40" shape="204.80,413.60 204.80,600.00"/>
        <lane id="lane_001_003_0_2" index="2" speed="13.89" length="186.40" shape="201.60,413.60 201.60,600.00"/>
    </edge>
    <edge id="lane_002_000_0" from="node_002_001" to="node_002_000" priority="3">
        <lane id="lane_002_000_0_0" index="0" speed="13.89" length="186.40" shape="392.00,186.40 392.00,0.00"/>
        <lane id="lane_002_000_0_1" index="1" speed="13.89" length="186.40" shape="395.20,186.40 395.20,0.00"/>
        <lane id="lane_002_000_0_2" index="2" speed="13.89" length="186.40" shape="398.40,186.40 398.40,0.00"/>
    </edge>
    <edge id="lane_002_001_1" from="node_001_001" to="node_002_001" priority="3">
        <lane id="lane_002_001_1_0" index="0" speed="13.89" length="172.80" shape="213.60,192.00 386.40,192.00"/>
        <lane id="lane_002_001_1_1" index="1" speed="13.89" length="172.80" shape="213.60,195.20 386.40,195.20"/>
        <lane id="lane_002_001_1_2" index="2" speed="13.89" length="172.80" shape="213.60,198.40 386.40,198.40"/>
    </edge>
    <edge id="lane_002_001_2" from="node_002_002" to="node_002_001" priority="3">
        <lane id="lane_002_001_2_0" index="0" speed="13.89" length="172.80" shape="392.00,386.40 392.00,213.60"/>
        <lane id="lane_002_001_2_1" index="1" speed="13.89" length="172.80" shape="395.20,386.40 395.20,213.60"/>
        <lane id="lane_002_001_2_2" index="2" speed="13.89" length="172.80" shape="398.40,386.40 398.40,213.60"/>
    </edge>
    <edge id="lane_002_001_3" from="node_003_001" to="node_002_001" priority="3">
        <lane id="lane_002_001_3_0" index="0" speed="13.89" length="186.40" shape="600.00,208.00 413.60,208.00"/>
        <lane id="lane_002_001_3_1" index="1" speed="13.89" length="186.40" shape="600.00,204.80 413.60,204.80"/>
        <lane id="lane_002_001_3_2" index="2" speed="13.89" length="186.40" shape="600.00,201.60 413.60,201.60"/>
    </edge>
    <edge id="lane_002_001_4" from="node_002_000" to="node_002_001" priority="3">
        <lane id="lane_002_001_4_0" index="0" speed="13.89" length="186.40" shape="408.00,0.00 408.00,186.40"/>
        <lane id="lane_002_001_4_1" index="1" speed="13.89" length="186.40" shape="404.80,0.00 404.80,186.40"/>
        <lane id="lane_002_001_4_2" index="2" speed="13.89" length="186.40" shape="401.60,0.00 401.60,186.40"/>
    </edge>
    <edge id="lane_002_002_1" from="node_001_002" to="node_002_002" priority="3">
        <lane id="lane_002_002_1_0" index="0" speed="13.89" length="172.80" shape="213.60,392.00 386.40,392.00"/>