<?xml version="1.0" encoding="UTF-8"?>

<!-- generated on 03/31/20 15:31:56 by Eclipse SUMO netedit Version 1.3.1
<configuration xmlns:xsi="http://www.w3.org/2001/XMLSchema-instance" xsi:noNamespaceSchemaLocation="http://sumo.dlr.de/xsd/netconvertConfiguration.xsd">

    <input>
        <sumo-net-file value="D:\Google%20Drive\NYU\V2X\UDTA\Roadrunner_v3\data\NGreenWaveLightlane2by2.net.xml"/>
    </input>

    <output>
        <output-file value="D:\Google%20Drive\NYU\V2X\UDTA\Roadrunner_v3\data\NGreenWaveLightlane2by2.net.xml"/>
    </output>

    <processing>
        <geometry.max-grade.fix value="false"/>
        <offset.disable-normalization value="true"/>
        <opposites.guess.fix-lengths value="true"/>
        <lefthand value="false"/>
    </processing>

    <junctions>
        <no-turnarounds value="true"/>
        <junctions.corner-detail value="5"/>
        <junctions.limit-turn-speed value="5.5"/>
        <rectangular-lane-cut value="false"/>
    </junctions>

    <pedestrian>
        <walkingareas value="false"/>
    </pedestrian>

</configuration>
-->

<net version="1.3" junctionCornerDetail="5" limitTurnSpeed="5.50" xmlns:xsi="http://www.w3.org/2001/XMLSchema-instance" xsi:noNamespaceSchemaLocation="http://sumo.dlr.de/xsd/net_file.xsd">

    <location netOffset="0.00,0.00" convBoundary="0.00,0.00,600.00,600.00" origBoundary="0.00,0.00,600.00,600.00" projParameter="!"/>

    <edge id=":001_001_0" function="internal">
        <lane id=":001_001_0_0" index="0" speed="6.51" length="9.03" width="3.20" shape="192.00,213.60 191.65,211.15 190.60,209.40 188.85,208.35 186.40,208.00"/>
    </edge>
    <edge id=":001_001_1" function="internal">
        <lane id=":001_001_1_0" index="0" speed="13.89" length="27.20" width="3.20" shape="192.00,213.60 192.00,186.40"/>
        <lane id=":001_001_1_1" index="1" speed="13.89" length="27.20" width="3.20" shape="195.20,213.60 195.20,186.40"/>
    </edge>
    <edge id=":001_001_3" function="internal">
        <lane id=":001_001_3_0" index="0" speed="10.36" length="13.42" width="3.20" shape="198.40,213.60 199.35,206.95 202.20,202.20 203.20,201.60"/>
    </edge>
    <edge id=":001_001_16" function="internal">
        <lane id=":001_001_16_0" index="0" speed="10.36" length="11.09" width="3.20" shape="203.20,201.60 206.95,199.35 213.60,198.40"/>
    </edge>
    <edge id=":001_001_4" function="internal">
        <lane id=":001_001_4_0" index="0" speed="6.51" length="9.03" width="3.20" shape="213.60,208.00 211.15,208.35 209.40,209.40 208.35,211.15 208.00,213.60"/>
    </edge>
    <edge id=":001_001_5" function="internal">
        <lane id=":001_001_5_0" index="0" speed="13.89" length="27.20" width="3.20" shape="213.60,208.00 186.40,208.00"/>
        <lane id=":001_001_5_1" index="1" speed="13.89" length="27.20" width="3.20" shape="213.60,204.80 186.40,204.80"/>
    </edge>
    <edge id=":001_001_7" function="internal">
        <lane id=":001_001_7_0" index="0" speed="10.36" length="13.42" width="3.20" shape="213.60,201.60 206.95,200.65 202.20,197.80 201.60,196.80"/>
    </edge>
    <edge id=":001_001_17" function="internal">
        <lane id=":001_001_17_0" index="0" speed="10.36" length="11.09" width="3.20" shape="201.60,196.80 199.35,193.05 198.40,186.40"/>
    </edge>
    <edge id=":001_001_8" function="internal">
        <lane id=":001_001_8_0" index="0" speed="6.51" length="9.03" width="3.20" shape="208.00,186.40 208.35,188.85 209.40,190.60 211.15,191.65 213.60,192.00"/>
    </edge>
    <edge id=":001_001_9" function="internal">
        <lane id=":001_001_9_0" index="0" speed="13.89" length="27.20" width="3.20" shape="208.00,186.40 208.00,213.60"/>
        <lane id=":001_001_9_1" index="1" speed="13.89" length="27.20" width="3.20" shape="204.80,186.40 204.80,213.60"/>
    </edge>
    <edge id=":001_001_11" function="internal">
        <lane id=":001_001_11_0" index="0" speed="10.36" length="13.42" width="3.20" shape="201.60,186.40 200.65,193.05 197.80,197.80 196.80,198.40"/>
    </edge>
    <edge id=":001_001_18" function="internal">
        <lane id=":001_001_18_0" index="0" speed="10.36" length="11.09" width="3.20" shape="196.80,198.40 193.05,200.65 186.40,201.60"/>
    </edge>
    <edge id=":001_001_12" function="internal">
        <lane id=":001_001_12_0" index="0" speed="6.51" length="9.03" width="3.20" shape="186.40,192.00 188.85,191.65 190.60,190.60 191.65,188.85 192.00,186.40"/>
    </edge>
    <edge id=":001_001_13" function="internal">
        <lane id=":001_001_13_0" index="0" speed="13.89" length="27.20" width="3.20" shape="186.40,192.00 213.60,192.00"/>
        <lane id=":001_001_13_1" index="1" speed="13.89" length="27.20" width="3.20" shape="186.40,195.20 213.60,195.20"/>
    </edge>
    <edge id=":001_001_15" function="internal">
        <lane id=":001_001_15_0" index="0" speed="10.36" length="13.42" width="3.20" shape="186.40,198.40 193.05,199.35 197.80,202.20 198.40,203.20"/>
    </edge>
    <edge id=":001_001_19" function="internal">
        <lane id=":001_001_19_0" index="0" speed="10.36" length="11.09" width="3.20" shape="198.40,203.20 200.65,206.95 201.60,213.60"/>
    </edge>
    <edge id=":001_002_0" function="internal">
        <lane id=":001_002_0_0" index="0" speed="6.51" length="9.03" width="3.20" shape="192.00,413.60 191.65,411.15 190.60,409.40 188.85,408.35 186.40,408.00"/>
    </edge>
    <edge id=":001_002_1" function="internal">
        <lane id=":001_002_1_0" index="0" speed="13.89" length="27.20" width="3.20" shape="192.00,413.60 192.00,386.40"/>
        <lane id=":001_002_1_1" index="1" speed="13.89" length="27.20" width="3.20" shape="195.20,413.60 195.20,386.40"/>
    </edge>
    <edge id=":001_002_3" function="internal">
        <lane id=":001_002_3_0" index="0" speed="10.36" length="13.42" width="3.20" shape="198.40,413.60 199.35,406.95 202.20,402.20 203.20,401.60"/>
    </edge>
    <edge id=":001_002_16" function="internal">
        <lane id=":001_002_16_0" index="0" speed="10.36" length="11.09" width="3.20" shape="203.20,401.60 206.95,399.35 213.60,398.40"/>
    </edge>
    <edge id=":001_002_4" function="internal">
        <lane id=":001_002_4_0" index="0" speed="6.51" length="9.03" width="3.20" shape="213.60,408.00 211.15,408.35 209.40,409.40 208.35,411.15 208.00,413.60"/>
    </edge>
    <edge id=":001_002_5" function="internal">
        <lane id=":001_002_5_0" index="0" speed="13.89" length="27.20" width="3.20" shape="213.60,408.00 186.40,408.00"/>
        <lane id=":001_002_5_1" index="1" speed="13.89" length="27.20" width="3.20" shape="213.60,404.80 186.40,404.80"/>
    </edge>
    <edge id=":001_002_7" function="internal">
        <lane id=":001_002_7_0" index="0" speed="10.36" length="13.42" width="3.20" shape="213.60,401.60 206.95,400.65 202.20,397.80 201.60,396.80"/>
    </edge>
    <edge id=":001_002_17" function="internal">
        <lane id=":001_002_17_0" index="0" speed="10.36" length="11.09" width="3.20" shape="201.60,396.80 199.35,393.05 198.40,386.40"/>
    </edge>
    <edge id=":001_002_8" function="internal">
        <lane id=":001_002_8_0" index="0" speed="6.51" length="9.03" width="3.20" shape="208.00,386.40 208.35,388.85 209.40,390.60 211.15,391.65 213.60,392.00"/>
    </edge>
    <edge id=":001_002_9" function="internal">
        <lane id=":001_002_9_0" index="0" speed="13.89" length="27.20" width="3.20" shape="208.00,386.40 208.00,413.60"/>
        <lane id=":001_002_9_1" index="1" speed="13.89" length="27.20" width="3.20" shape="204.80,386.40 204.80,413.60"/>
    </edge>
    <edge id=":001_002_11" function="internal">
        <lane id=":001_002_11_0" index="0" speed="10.36" length="13.42" width="3.20" shape="201.60,386.40 200.65,393.05 197.80,397.80 196.80,398.40"/>
    </edge>
    <edge id=":001_002_18" function="internal">
        <lane id=":001_002_18_0" index="0" speed="10.36" length="11.09" width="3.20" shape="196.80,398.40 193.05,400.65 186.40,401.60"/>
    </edge>
    <edge id=":001_002_12" function="internal">
        <lane id=":001_002_12_0" index="0" speed="6.51" length="9.03" width="3.20" shape="186.40,392.00 188.85,391.65 190.60,390.60 191.65,388.85 192.00,386.40"/>
    </edge>
    <edge id=":001_002_13" function="internal">
        <lane id=":001_002_13_0" index="0" speed="13.89" length="27.20" width="3.20" shape="186.40,392.00 213.60,392.00"/>
        <lane id=":001_002_13_1" index="1" speed="13.89" length="27.20" width="3.20" shape="186.40,395.20 213.60,395.20"/>
    </edge>
    <edge id=":001_002_15" function="internal">
        <lane id=":001_002_15_0" index="0" speed="10.36" length="13.42" width="3.20" shape="186.40,398.40 193.05,399.35 197.80,402.20 198.40,403.20"/>
    </edge>
    <edge id=":001_002_19" function="internal">
        <lane id=":001_002_19_0" index="0" speed="10.36" length="11.09" width="3.20" shape="198.40,403.20 200.65,406.95 201.60,413.60"/>
    </edge>
    <edge id=":002_001_0" function="internal">
        <lane id=":002_001_0_0" index="0" speed="6.51" length="9.03" width="3.20" shape="392.00,213.60 391.65,211.15 390.60,209.40 388.85,208.35 386.40,208.00"/>
    </edge>
    <edge id=":002_001_1" function="internal">
        <lane id=":002_001_1_0" index="0" speed="13.89" length="27.20" width="3.20" shape="392.00,213.60 392.00,186.40"/>
        <lane id=":002_001_1_1" index="1" speed="13.89" length="27.20" width="3.20" shape="395.20,213.60 395.20,186.40"/>
    </edge>
    <edge id=":002_001_3" function="internal">
        <lane id=":002_001_3_0" index="0" speed="10.36" length="13.42" width="3.20" shape="398.40,213.60 399.35,206.95 402.20,202.20 403.20,201.60"/>
    </edge>
    <edge id=":002_001_16" function="internal">
        <lane id=":002_001_16_0" index="0" speed="10.36" length="11.09" width="3.20" shape="403.20,201.60 406.95,199.35 413.60,198.40"/>
    </edge>
    <edge id=":002_001_4" function="internal">
        <lane id=":002_001_4_0" index="0" speed="6.51" length="9.03" width="3.20" shape="413.60,208.00 411.15,208.35 409.40,209.40 408.35,211.15 408.00,213.60"/>
    </edge>
    <edge id=":002_001_5" function="internal">
        <lane id=":002_001_5_0" index="0" speed="13.89" length="27.20" width="3.20" shape="413.60,208.00 386.40,208.00"/>
        <lane id=":002_001_5_1" index="1" speed="13.89" length="27.20" width="3.20" shape="413.60,204.80 386.40,204.80"/>
    </edge>
    <edge id=":002_001_7" function="internal">
        <lane id=":002_001_7_0" index="0" speed="10.36" length="13.42" width="3.20" shape="413.60,201.60 406.95,200.65 402.20,197.80 401.60,196.80"/>
    </edge>
    <edge id=":002_001_17" function="internal">
        <lane id=":002_001_17_0" index="0" speed="10.36" length="11.09" width="3.20" shape="401.60,196.80 399.35,193.05 398.40,186.40"/>
    </edge>
    <edge id=":002_001_8" function="internal">
        <lane id=":002_001_8_0" index="0" speed="6.51" length="9.03" width="3.20" shape="408.00,186.40 408.35,188.85 409.40,190.60 411.15,191.65 413.60,192.00"/>
    </edge>
    <edge id=":002_001_9" function="internal">
        <lane id=":002_001_9_0" index="0" speed="13.89" length="27.20" width="3.20" shape="408.00,186.40 408.00,213.60"/>
        <lane id=":002_001_9_1" index="1" speed="13.89" length="27.20" width="3.20" shape="404.80,186.40 404.80,213.60"/>
    </edge>
    <edge id=":002_001_11" function="internal">
        <lane id=":002_001_11_0" index="0" speed="10.36" length="13.42" width="3.20" shape="401.60,186.40 400.65,193.05 397.80,197.80 396.80,198.40"/>
    </edge>
    <edge id=":002_001_18" function="internal">
        <lane id=":002_001_18_0" index="0" speed="10.36" length="11.09" width="3.20" shape="396.80,198.40 393.05,200.65 386.40,201.60"/>
    </edge>
    <edge id=":002_001_12" function="internal">
        <lane id=":002_001_12_0" index="0" speed="6.51" length="9.03" width="3.20" shape="386.40,192.00 388.85,191.65 390.60,190.60 391.65,188.85 392.00,186.40"/>
    </edge>
    <edge id=":002_001_13" function="internal">
        <lane id=":002_001_13_0" index="0" speed="13.89" length="27.20" width="3.20" shape="386.40,192.00 413.60,192.00"/>
        <lane id=":002_001_13_1" index="1" speed="13.89" length="27.20" width="3.20" shape="386.40,195.20 413.60,195.20"/>
    </edge>
    <edge id=":002_001_15" function="internal">
        <lane id=":002_001_15_0" index="0" speed="10.36" length="13.42" width="3.20" shape="386.40,198.40 393.05,199.35 397.80,202.20 398.40,203.20"/>
    </edge>
    <edge id=":002_001_19" function="internal">
        <lane id=":002_001_19_0" index="0" speed="10.36" length="11.09" width="3.20" shape="398.40,203.20 400.65,206.95 401.60,213.60"/>
    </edge>
    <edge id=":002_002_0" function="internal">
        <lane id=":002_002_0_0" index="0" speed="6.51" length="9.03" width="3.20" shape="392.00,413.60 391.65,411.15 390.60,409.40 388.85,408.35 386.40,408.00"/>
    </edge>
    <edge id=":002_002_1" function="internal">
        <lane id=":002_002_1_0" index="0" speed="13.89" length="27.20" width="3.20" shape="392.00,413.60 392.00,386.40"/>
        <lane id=":002_002_1_1" index="1" speed="13.89" length="27.20" width="3.20" shape="395.20,413.60 395.20,386.40"/>
    </edge>
    <edge id=":002_002_3" function="internal">
        <lane id=":002_002_3_0" index="0" speed="10.36" length="13.42" width="3.20" shape="398.40,413.60 399.35,406.95 402.20,402.20 403.20,401.60"/>
    </edge>
    <edge id=":002_002_16" function="internal">
        <lane id=":002_002_16_0" index="0" speed="10.36" length="11.09" width="3.20" shape="403.20,401.60 406.95,399.35 413.60,398.40"/>
    </edge>
    <edge id=":002_002_4" function="internal">
        <lane id=":002_002_4_0" index="0" speed="6.51" length="9.03" width="3.20" shape="413.60,408.00 411.15,408.35 409.40,409.40 408.35,411.15 408.00,413.60"/>
    </edge>
    <edge id=":002_002_5" function="internal">
        <lane id=":002_002_5_0" index="0" speed="13.89" length="27.20" width="3.20" shape="413.60,408.00 386.40,408.00"/>
        <lane id=":002_002_5_1" index="1" speed="13.89" length="27.20" width="3.20" shape="413.60,404.80 386.40,404.80"/>
    </edge>
    <edge id=":002_002_7" function="internal">
        <lane id=":002_002_7_0" index="0" speed="10.36" length="13.42" width="3.20" shape="413.60,401.60 406.95,400.65 402.20,397.80 401.60,396.80"/>
    </edge>
    <edge id=":002_002_17" function="internal">
        <lane id=":002_002_17_0" index="0" speed="10.36" length="11.09" width="3.20" shape="401.60,396.80 399.35,393.05 398.40,386.40"/>
    </edge>
    <edge id=":002_002_8" function="internal">
        <lane id=":002_002_8_0" index="0" speed="6.51" length="9.03" width="3.20" shape="408.00,386.40 408.35,388.85 409.40,390.60 411.15,391.65 413.60,392.00"/>
    </edge>
    <edge id=":002_002_9" function="internal">
        <lane id=":002_002_9_0" index="0" speed="13.89" length="27.20" width="3.20" shape="408.00,386.40 408.00,413.60"/>
        <lane id=":002_002_9_1" index="1" speed="13.89" length="27.20" width="3.20" shape="404.80,386.40 404.80,413.60"/>
    </edge>
    <edge id=":002_002_11" function="internal">
        <lane id=":002_002_11_0" index="0" speed="10.36" length="13.42" width="3.20" shape="401.60,386.40 400.65,393.05 397.80,397.80 396.80,398.40"/>
    </edge>
    <edge id=":002_002_18" function="internal">
        <lane id=":002_002_18_0" index="0" speed="10.36" length="11.09" width="3.20" shape="396.80,398.40 393.05,400.65 386.40,401.60"/>
    </edge>
    <edge id=":002_002_12" function="internal">
        <lane id=":002_002_12_0" index="0" speed="6.51" length="9.03" width="3.20" shape="386.40,392.00 388.85,391.65 390.60,390.60 391.65,388.85 392.00,386.40"/>
    </edge>
    <edge id=":002_002_13" function="internal">
        <lane id=":002_002_13_0" index="0" speed="13.89" length="27.20" width="3.20" shape="386.40,392.00 413.60,392.00"/>
        <lane id=":002_002_13_1" index="1" speed="13.89" length="27.20" width="3.20" shape="386.40,395.20 413.60,395.20"/>
    </edge>
    <edge id=":002_002_15" function="internal">
        <lane id=":002_002_15_0" index="0" speed="10.36" length="13.42" width="3.20" shape="386.40,398.40 393.05,399.35 397.80,402.20 398.40,403.20"/>
    </edge>
    <edge id=":002_002_19" function="internal">
        <lane id=":002_002_19_0" index="0" speed="10.36" length="11.09" width="3.20" shape="398.40,403.20 400.65,406.95 401.60,413.60"/>
    </edge>

    <edge id="000_001_3" from="001_001" to="000_001" priority="3">
        <lane id="000_001_3_0" index="0" speed="13.89" length="186.40" width="3.20" shape="186.40,208.00 0.00,208.00"/>
        <lane id="000_001_3_1" index="1" speed="13.89" length="186.40" width="3.20" shape="186.40,204.80 0.00,204.80"/>
        <lane id="000_001_3_2" index="2" speed="13.89" length="186.40" width="3.20" shape="186.40,201.60 0.00,201.60"/>
    </edge>
    <edge id="000_002_3" from="001_002" to="000_002" priority="3">
        <lane id="000_002_3_0" index="0" speed="13.89" length="186.40" width="3.20" shape="186.40,408.00 0.00,408.00"/>
        <lane id="000_002_3_1" index="1" speed="13.89" length="186.40" width="3.20" shape="186.40,404.80 0.00,404.80"/>
        <lane id="000_002_3_2" index="2" speed="13.89" length="186.40" width="3.20" shape="186.40,401.60 0.00,401.60"/>
    </edge>
    <edge id="001_000_2" from="001_001" to="001_000" priority="3">
        <lane id="001_000_2_0" index="0" speed="13.89" length="186.40" width="3.20" shape="192.00,186.40 192.00,0.00"/>
        <lane id="001_000_2_1" index="1" speed="13.89" length="186.40" width="3.20" shape="195.20,186.40 195.20,0.00"/>
        <lane id="001_000_2_2" index="2" speed="13.89" length="186.40" width="3.20" shape="198.40,186.40 198.40,0.00"/>
    </edge>
    <edge id="001_001_1" from="000_001" to="001_001" priority="3">
        <lane id="001_001_1_0" index="0" speed="13.89" length="186.40" width="3.20" shape="0.00,192.00 186.40,192.00"/>
        <lane id="001_001_1_1" index="1" speed="13.89" length="186.40" width="3.20" shape="0.00,195.20 186.40,195.20"/>
        <lane id="001_001_1_2" index="2" speed="13.89" length="186.40" width="3.20" shape="0.00,198.40 186.40,198.40"/>
    </edge>
    <edge id="001_001_2" from="001_002" to="001_001" priority="3">
        <lane id="001_001_2_0" index="0" speed="13.89" length="172.80" width="3.20" shape="192.00,386.40 192.00,213.60"/>
        <lane id="001_001_2_1" index="1" speed="13.89" length="172.80" width="3.20" shape="195.20,386.40 195.20,213.60"/>
        <lane id="001_001_2_2" index="2" speed="13.89" length="172.80" width="3.20" shape="198.40,386.40 198.40,213.60"/>
    </edge>
    <edge id="001_001_3" from="002_001" to="001_001" priority="3">
        <lane id="001_001_3_0" index="0" speed="13.89" length="172.80" width="3.20" shape="386.40,208.00 213.60,208.00"/>
        <lane id="001_001_3_1" index="1" speed="13.89" length="172.80" width="3.20" shape="386.40,204.80 213.60,204.80"/>
        <lane id="001_001_3_2" index="2" speed="13.89" length="172.80" width="3.20" shape="386.40,201.60 213.60,201.60"/>
    </edge>
    <edge id="001_001_4" from="001_000" to="001_001" priority="3">
        <lane id="001_001_4_0" index="0" speed="13.89" length="186.40" width="3.20" shape="208.00,0.00 208.00,186.40"/>
        <lane id="001_001_4_1" index="1" speed="13.89" length="186.40" width="3.20" shape="204.80,0.00 204.80,186.40"/>
        <lane id="001_001_4_2" index="2" speed="13.89" length="186.40" width="3.20" shape="201.60,0.00 201.60,186.40"/>
    </edge>
    <edge id="001_002_1" from="000_002" to="001_002" priority="3">
        <lane id="001_002_1_0" index="0" speed="13.89" length="186.40" width="3.20" shape="0.00,392.00 186.40,392.00"/>
        <lane id="001_002_1_1" index="1" speed="13.89" length="186.40" width="3.20" shape="0.00,395.20 186.40,395.20"/>
        <lane id="001_002_1_2" index="2" speed="13.89" length="186.40" width="3.20" shape="0.00,398.40 186.40,398.40"/>
    </edge>
    <edge id="001_002_2" from="001_003" to="001_002" priority="3">
        <lane id="001_002_2_0" index="0" speed="13.89" length="186.40" width="3.20" shape="192.00,600.00 192.00,413.60"/>
        <lane id="001_002_2_1" index="1" speed="13.89" length="186.40" width="3.20" shape="195.20,600.00 195.20,413.60"/>
        <lane id="001_002_2_2" index="2" speed="13.89" length="186.40" width="3.20" shape="198.40,600.00 198.40,413.60"/>
    </edge>
    <edge id="001_002_3" from="002_002" to="001_002" priority="3">
        <lane id="001_002_3_0" index="0" speed="13.89" length="172.80" width="3.20" shape="386.40,408.00 213.60,408.00"/>
        <lane id="001_002_3_1" index="1" speed="13.89" length="172.80" width="3.20" shape="386.40,404.80 213.60,404.80"/>
        <lane id="001_002_3_2" index="2" speed="13.89" length="172.80" width="3.20" shape="386.40,401.60 213.60,401.60"/>
    </edge>
    <edge id="001_002_4" from="001_001" to="001_002" priority="3">
        <lane id="001_002_4_0" index="0" speed="13.89" length="172.80" width="3.20" shape="208.00,213.60 208.00,386.40"/>
        <lane id="001_002_4_1" index="1" speed="13.89" length="172.80" width="3.20" shape="204.80,213.60 204.80,386.40"/>
        <lane id="001_002_4_2" index="2" speed="13.89" length="172.80" width="3.20" shape="201.60,213.60 201.60,386.40"/>
    </edge>
    <edge id="001_003_4" from="001_002" to="001_003" priority="3">
        <lane id="001_003_4_0" index="0" speed="13.89" length="186.40" width="3.20" shape="208.00,413.60 208.00,600.00"/>
        <lane id="001_003_4_1" index="1" speed="13.89" length="186.40" width="3.20" shape="204.80,413.60 204.80,600.00"/>
        <lane id="001_003_4_2" index="2" speed="13.89" length="186.40" width="3.20" shape="201.60,413.60 201.60,600.00"/>
    </edge>
    <edge id="002_000_2" from="002_001" to="002_000" priority="3">
        <lane id="002_000_2_0" index="0" speed="13.89" length="186.40" width="3.20" shape="392.00,186.40 392.00,0.00"/>
        <lane id="002_000_2_1" index="1" speed="13.89" length="186.40" width="3.20" shape="395.20,186.40 395.20,0.00"/>
        <lane id="002_000_2_2" index="2" speed="13.89" length="186.40" width="3.20" shape="398.40,186.40 398.40,0.00"/>
    </edge>
    <edge id="002_001_1" from="001_001" to="002_001" priority="3">
        <lane id="002_001_1_0" index="0" speed="13.89" length="172.80" width="3.20" shape="213.60,192.00 386.40,192.00"/>
        <lane id="002_001_1_1" index="1" speed="13.89" length="172.80" width="3.20" shape="213.60,195.20 386.40,195.20"/>
        <lane id="002_001_1_2" index="2" speed="13.89" length="172.80" width="3.20" shape="213.60,198.40 386.40,198.40"/>
    </edge>
    <edge id="002_001_2" from="002_002" to="002_001" priority="3">
        <lane id="002_001_2_0" index="0" speed="13.89" length="172.80" width="3.20" shape="392.00,386.40 392.00,213.60"/>
        <lane id="002_001_2_1" index="1" speed="13.89" length="172.80" width="3.20" shape="395.20,386.40 395.20,213.60"/>
        <lane id="002_001_2_2" index="2" speed="13.89" length="172.80" width="3.20" shape="398.40,386.40 398.40,213.60"/>
    </edge>
    <edge id="002_001_3" from="003_001" to="002_001" priority="3">
        <lane id="002_001_3_0" index="0" speed="13.89" length="186.40" width="3.20" shape="600.00,208.00 413.60,208.00"/>
        <lane id="002_001_3_1" index="1" speed="13.89" length="186.40" width="3.20" shape="600.00,204.80 413.60,204.80"/>
        <lane id="002_001_3_2" index="2" speed="13.89" length="186.40" width="3.20" shape="600.00,201.60 413.60,201.60"/>
    </edge>
    <edge id="002_001_4" from="002_000" to="002_001" priority="3">
        <lane id="002_001_4_0" index="0" speed="13.89" length="186.40" width="3.20" shape="408.00,0.00 408.00,186.40"/>
        <lane id="002_001_4_1" index="1" speed="13.89" length="186.40" width="3.20" shape="404.80,0.00 404.80,186.40"/>
        <lane id="002_001_4_2" index="2" speed="13.89" length="186.40" width="3.20" shape="401.60,0.00 401.60,186.40"/>
    </edge>
    <edge id="002_002_1" from="001_002" to="002_002" priority="3">
        <lane id="002_002_1_0" index="0" speed="13.89" length="172.80" width="3.20" shape="213.60,392.00 386.40,392.00"/>
        <lane id="002_002_1_1" index="1" speed="13.89" length="172.80" width="3.20" shape="213.60,395.20 386.40,395.20"/>
        <lane id="002_002_1_2" index="2" speed="13.89" length="172.80" width="3.20" shape="213.60,398.40 386.40,398.40"/>
    </edge>
    <edge id="002_002_2" from="002_003" to="002_002" priority="3">
        <lane id="002_002_2_0" index="0" speed="13.89" length="186.40" width="3.20" shape="392.00,600.00 392.00,413.60"/>
        <lane id="002_002_2_1" index="1" speed="13.89" length="186.40" width="3.20" shape="395.20,600.00 395.20,413.60"/>
        <lane id="002_002_2_2" index="2" speed="13.89" length="186.40" width="3.20" shape="398.40,600.00 398.40,413.60"/>
    </edge>
    <edge id="002_002_3" from="003_002" to="002_002" priority="3">
        <lane id="002_002_3_0" index="0" speed="13.89" length="186.40" width="3.20" shape="600.00,408.00 413.60,408.00"/>
        <lane id="002_002_3_1" index="1" speed="13.89" length="186.40" width="3.20" shape="600.00,404.80 413.60,404.80"/>
        <lane id="002_002_3_2" index="2" speed="13.89" length="186.40" width="3.20" shape="600.00,401.60 413.60,401.60"/>
    </edge>
    <edge id="002_002_4" from="002_001" to="002_002" priority="3">
        <lane id="002_002_4_0" index="0" speed="13.89" length="172.80" width="3.20" shape="408.00,213.60 408.00,386.40"/>
        <lane id="002_002_4_1" index="1" speed="13.89" length="172.80" width="3.20" shape="404.80,213.60 404.80,386.40"/>
        <lane id="002_002_4_2" index="2" speed="13.89" length="172.80" width="3.20" shape="401.60,213.60 401.60,386.40"/>
    </edge>
    <edge id="002_003_4" from="002_002" to="002_003" priority="3">
        <lane id="002_003_4_0" index="0" speed="13.89" length="186.40" width="3.20" shape="408.00,413.60 408.00,600.00"/>
        <lane id="002_003_4_1" index="1" speed="13.89" length="186.40" width="3.20" shape="404.80,413.60 404.80,600.00"/>
        <lane id="002_003_4_2" index="2" speed="13.89" length="186.40" width="3.20" shape="401.60,413.60 401.60,600.00"/>
    </edge>
    <edge id="003_001_1" from="002_001" to="003_001" priority="3">
        <lane id="003_001_1_0" index="0" speed="13.89" length="186.40" width="3.20" shape="413.60,192.00 600.00,192.00"/>
        <lane id="003_001_1_1" index="1" speed="13.89" length="186.40" width="3.20" shape="413.60,195.20 600.00,195.20"/>
        <lane id="003_001_1_2" index="2" speed="13.89" length="186.40" width="3.20" shape="413.60,198.40 600.00,198.40"/>
    </edge>
    <edge id="003_002_1" from="002_002" to="003_002" priority="3">
        <lane id="003_002_1_0" index="0" speed="13.89" length="186.40" width="3.20" shape="413.60,392.00 600.00,392.00"/>
        <lane id="003_002_1_1" index="1" speed="13.89" length="186.40" width="3.20" shape="413.60,395.20 600.00,395.20"/>
        <lane id="003_002_1_2" index="2" speed="13.89" length="186.40" width="3.20" shape="413.60,398.40 600.00,398.40"/>
    </edge>

    <tlLogic id="001_001" type="static" programID="0" offset="0">
        <phase duration="42" state="GGgGgGgrrrrrrrGGgGgGgrrrrrrr"/>
        <phase duration="3"  state="yyyyyyyrrrrrrryyyyyyyrrrrrrr"/>
        <phase duration="42" state="rrrrrrrGGgGgGgrrrrrrrGGgGgGg"/>
        <phase duration="3"  state="rrrrrrryyyyyyyrrrrrrryyyyyyy"/>
    </tlLogic>
    <tlLogic id="001_002" type="static" programID="0" offset="45">
        <phase duration="42" state="GGgGgGgrrrrrrrGGgGgGgrrrrrrr"/>
        <phase duration="3"  state="yyyyyyyrrrrrrryyyyyyyrrrrrrr"/>
        <phase duration="42" state="rrrrrrrGGgGgGgrrrrrrrGGgGgGg"/>
        <phase duration="3"  state="rrrrrrryyyyyyyrrrrrrryyyyyyy"/>
    </tlLogic>
    <tlLogic id="002_001" type="static" programID="0" offset="45">
        <phase duration="42" state="GGgGgGgrrrrrrrGGgGgGgrrrrrrr"/>
        <phase duration="3"  state="yyyyyyyrrrrrrryyyyyyyrrrrrrr"/>
        <phase duration="42" state="rrrrrrrGGgGgGgrrrrrrrGGgGgGg"/>
        <phase duration="3"  state="rrrrrrryyyyyyyrrrrrrryyyyyyy"/>
    </tlLogic>
    <tlLogic id="002_002" type="static" programID="0" offset="0">
        <phase duration="42" state="GGgGgGgrrrrrrrGGgGgGgrrrrrrr"/>
        <phase duration="3"  state="yyyyyyyrrrrrrryyyyyyyrrrrrrr"/>
        <phase duration="42" state="rrrrrrrGGgGgGgrrrrrrrGGgGgGg"/>
        <phase duration="3"  state="rrrrrrryyyyyyyrrrrrrryyyyyyy"/>
    </tlLogic>

    <junction id="000_001" type="unregulated" x="0.00" y="200.00" incLanes="000_001_3_0 000_001_3_1 000_001_3_2" intLanes="" shape="0.00,200.00 0.00,209.60 0.00,200.00"/>
    <junction id="000_002" type="unregulated" x="0.00" y="400.00" incLanes="000_002_3_0 000_002_3_1 000_002_3_2" intLanes="" shape="0.00,400.00 0.00,409.60 0.00,400.00"/>
    <junction id="001_000" type="unregulated" x="200.00" y="0.00" incLanes="001_000_2_0 001_000_2_1 001_000_2_2" intLanes="" shape="200.00,0.00 190.40,0.00 200.00,0.00"/>
    <junction id="001_001" type="traffic_light" x="200.00" y="200.00" incLanes="001_001_2_0 001_001_2_1 001_001_2_2 001_001_3_0 001_001_3_1 001_001_3_2 001_001_4_0 001_001_4_1 001_001_4_2 001_001_1_0 001_001_1_1 001_001_1_2" intLanes=":001_001_0_0 :001_001_1_0 :001_001_1_1 :001_001_16_0 :001_001_4_0 :001_001_5_0 :001_001_5_1 :001_001_17_0 :001_001_8_0 :001_001_9_0 :001_001_9_1 :001_001_18_0 :001_001_12_0 :001_001_13_0 :001_001_13_1 :001_001_19_0" shape="190.40,213.60 209.60,213.60 210.04,211.38 210.60,210.60 211.38,210.04 212.38,209.71 213.60,209.60 213.60,190.40 211.38,189.96 210.60,189.40 210.04,188.62 209.71,187.62 209.60,186.40 190.40,186.40 189.96,188.62 189.40,189.40 188.62,189.96 187.62,190.29 186.40,190.40 186.40,209.60 188.62,210.04 189.40,210.60 189.96,211.38 190.29,212.38">
        <request index="0"  response="0000000000000000" foes="0000000001100000" cont="0"/>
        <request index="1"  response="1000000000000000" foes="1111100001100000" cont="0"/>
        <request index="2"  response="1000000000000000" foes="1111100001100000" cont="0"/>