<?xml version="1.0" encoding="UTF-8"?>

<!-- generated on 09/02/20 18:06:13 by Eclipse SUMO netedit Version 1.6.0
<configuration xmlns:xsi="http://www.w3.org/2001/XMLSchema-instance" xsi:noNamespaceSchemaLocation="http://sumo.dlr.de/xsd/netconvertConfiguration.xsd">

    <input>
        <sumo-net-file value="D:\Google%20Drive\NYU\V2X\Roadrunner\code\Journal%20paper\Roadrunner_v3\data\two_inter.net.xml"/>
    </input>

    <output>
        <output-file value="D:\Google%20Drive\NYU\V2X\Roadrunner\code\Journal%20paper\Roadrunner_v3\data\two_inter.net.xml"/>
    </output>

    <processing>
        <geometry.min-radius.fix.railways value="false"/>
        <geometry.max-grade.fix value="false"/>
        <offset.disable-normalization value="true"/>
        <lefthand value="false"/>
    </processing>

    <junctions>
        <no-turnarounds value="true"/>
        <junctions.corner-detail value="5"/>
        <junctions.limit-turn-speed value="5.5"/>
        <rectangular-lane-cut value="false"/>
    </junctions>

    <pedestrian>
        <walkingareas value="false"/>
    </pedestrian>

    <report>
        <aggregate-warnings value="5"/>
    </report>

</configuration>
-->

<net version="1.6" junctionCornerDetail="5" limitTurnSpeed="5.50" xmlns:xsi="http://www.w3.org/2001/XMLSchema-instance" xsi:noNamespaceSchemaLocation="http://sumo.dlr.de/xsd/net_file.xsd">

    <location netOffset="186.40,186.40" convBoundary="200.00,200.00,800.00,600.00" origBoundary="-186.40,-186.40,868.00,868.00" projParameter="!"/>

    <edge id=":001_001_0" function="internal">
        <lane id=":001_001_0_0" index="0" speed="6.51" length="9.03" width="3.20" shape="392.00,413.60 391.65,411.15 390.60,409.40 388.85,408.35 386.40,408.00"/>
    </edge>
    <edge id=":001_001_1" function="internal">
        <lane id=":001_001_1_0" index="0" speed="11.18" length="27.20" width="3.20" shape="392.00,413.60 392.00,386.40"/>
    </edge>
    <edge id=":001_001_2" function="internal">
        <lane id=":001_001_2_0" index="0" speed="11.18" length="6.41" width="3.20" shape="392.00,413.60 393.83,407.45"/>
    </edge>
    <edge id=":001_001_3" function="internal">
        <lane id=":001_001_3_0" index="0" speed="8.00" length="5.93" width="3.20" shape="395.20,413.60 394.65,409.75 393.60,408.00"/>
    </edge>
    <edge id=":001_001_4" function="internal">
        <lane id=":001_001_4_0" index="0" speed="11.18" length="27.20" width="3.20" shape="395.20,413.60 395.20,386.40"/>
    </edge>
    <edge id=":001_001_5" function="internal">
        <lane id=":001_001_5_0" index="0" speed="11.07" length="11.48" width="3.20" shape="395.20,413.60 396.86,407.07 399.64,403.23"/>
    </edge>
    <edge id=":001_001_6" function="internal">
        <lane id=":001_001_6_0" index="0" speed="9.26" length="6.96" width="3.20" shape="398.40,413.60 397.65,408.35 396.80,406.93"/>
    </edge>
    <edge id=":001_001_7" function="internal">
        <lane id=":001_001_7_0" index="0" speed="11.18" length="27.20" width="3.20" shape="398.40,413.60 398.40,386.40"/>
    </edge>
    <edge id=":001_001_8" function="internal">
        <lane id=":001_001_8_0" index="0" speed="10.10" length="5.96" width="3.20" shape="398.40,413.60 399.77,408.20 400.00,407.88"/>
    </edge>
    <edge id=":001_001_36" function="internal">
        <lane id=":001_001_36_0" index="0" speed="11.18" length="26.08" width="3.20" shape="393.83,407.45 394.13,406.48 399.47,399.47 406.48,394.13 413.60,392.00"/>
    </edge>
    <edge id=":001_001_37" function="internal">
        <lane id=":001_001_37_0" index="0" speed="8.00" length="8.26" width="3.20" shape="393.60,408.00 393.00,407.00 390.25,405.35 386.40,404.80"/>
    </edge>
    <edge id=":001_001_38" function="internal">
        <lane id=":001_001_38_0" index="0" speed="11.07" length="16.62" width="3.20" shape="399.64,403.23 401.15,401.15 407.07,396.86 413.60,395.20"/>
    </edge>
    <edge id=":001_001_39" function="internal">
        <lane id=":001_001_39_0" index="0" speed="9.26" length="12.40" width="3.20" shape="396.80,406.93 395.40,404.60 391.65,402.35 386.40,401.60"/>
    </edge>
    <edge id=":001_001_40" function="internal">
        <lane id=":001_001_40_0" index="0" speed="10.10" length="17.25" width="3.20" shape="400.00,407.88 403.31,403.31 408.20,399.77 413.60,398.40"/>
    </edge>
    <edge id=":001_001_9" function="internal">
        <lane id=":001_001_9_0" index="0" speed="6.51" length="9.03" width="3.20" shape="413.60,408.00 411.15,408.35 409.40,409.40 408.35,411.15 408.00,413.60"/>
    </edge>
    <edge id=":001_001_10" function="internal">
        <lane id=":001_001_10_0" index="0" speed="11.18" length="27.20" width="3.20" shape="413.60,408.00 386.40,408.00"/>
    </edge>
    <edge id=":001_001_11" function="internal">
        <lane id=":001_001_11_0" index="0" speed="11.18" length="32.49" width="3.20" shape="413.60,408.00 406.48,405.88 399.47,400.53 394.13,393.52 392.00,386.40"/>
    </edge>
    <edge id=":001_001_12" function="internal">
        <lane id=":001_001_12_0" index="0" speed="8.00" length="14.19" width="3.20" shape="413.60,404.80 409.75,405.35 407.00,407.00 405.35,409.75 404.80,413.60"/>
    </edge>
    <edge id=":001_001_13" function="internal">
        <lane id=":001_001_13_0" index="0" speed="11.18" length="27.20" width="3.20" shape="413.60,404.80 386.40,404.80"/>
    </edge>
    <edge id=":001_001_14" function="internal">
        <lane id=":001_001_14_0" index="0" speed="11.07" length="28.10" width="3.20" shape="413.60,404.80 407.07,403.14 401.15,398.85 396.86,392.93 395.20,386.40"/>
    </edge>
    <edge id=":001_001_15" function="internal">
        <lane id=":001_001_15_0" index="0" speed="9.26" length="19.35" width="3.20" shape="413.60,401.60 408.35,402.35 404.60,404.60 402.35,408.35 401.60,413.60"/>
    </edge>
    <edge id=":001_001_16" function="internal">
        <lane id=":001_001_16_0" index="0" speed="11.18" length="27.20" width="3.20" shape="413.60,401.60 386.40,401.60"/>
    </edge>
    <edge id=":001_001_17" function="internal">
        <lane id=":001_001_17_0" index="0" speed="10.10" length="23.22" width="3.20" shape="413.60,401.60 408.20,400.23 403.31,396.69 399.77,391.80 398.40,386.40"/>
    </edge>
    <edge id=":001_001_18" function="internal">
        <lane id=":001_001_18_0" index="0" speed="6.51" length="9.03" width="3.20" shape="408.00,386.40 408.35,388.85 409.40,390.60 411.15,391.65 413.60,392.00"/>
    </edge>
    <edge id=":001_001_19" function="internal">
        <lane id=":001_001_19_0" index="0" speed="11.18" length="27.20" width="3.20" shape="408.00,386.40 408.00,413.60"/>
    </edge>
    <edge id=":001_001_20" function="internal">
        <lane id=":001_001_20_0" index="0" speed="11.18" length="6.41" width="3.20" shape="408.00,386.40 406.17,392.55"/>
    </edge>
    <edge id=":001_001_21" function="internal">
        <lane id=":001_001_21_0" index="0" speed="8.00" length="5.93" width="3.20" shape="404.80,386.40 405.35,390.25 406.40,392.00"/>
    </edge>
    <edge id=":001_001_22" function="internal">
        <lane id=":001_001_22_0" index="0" speed="11.18" length="27.20" width="3.20" shape="404.80,386.40 404.80,413.60"/>
    </edge>
    <edge id=":001_001_23" function="internal">
        <lane id=":001_001_23_0" index="0" speed="11.07" length="11.48" width="3.20" shape="404.80,386.40 403.14,392.93 400.36,396.77"/>
    </edge>
    <edge id=":001_001_24" function="internal">
        <lane id=":001_001_24_0" index="0" speed="9.26" length="6.96" width="3.20" shape="401.60,386.40 402.35,391.65 403.20,393.07"/>
    </edge>
    <edge id=":001_001_25" function="internal">
        <lane id=":001_001_25_0" index="0" speed="11.18" length="27.20" width="3.20" shape="401.60,386.40 401.60,413.60"/>
    </edge>
    <edge id=":001_001_26" function="internal">
        <lane id=":001_001_26_0" index="0" speed="10.10" length="5.96" width="3.20" shape="401.60,386.40 400.23,391.80 400.00,392.12"/>
    </edge>
    <edge id=":001_001_41" function="internal">
        <lane id=":001_001_41_0" index="0" speed="11.18" length="26.08" width="3.20" shape="406.17,392.55 405.88,393.52 400.53,400.53 393.52,405.88 386.40,408.00"/>
    </edge>
    <edge id=":001_001_42" function="internal">
        <lane id=":001_001_42_0" index="0" speed="8.00" length="8.26" width="3.20" shape="406.40,392.00 407.00,393.00 409.75,394.65 413.60,395.20"/>
    </edge>
    <edge id=":001_001_43" function="internal">
        <lane id=":001_001_43_0" index="0" speed="11.07" length="16.62" width="3.20" shape="400.36,396.77 398.85,398.85 392.93,403.14 386.40,404.80"/>
    </edge>
    <edge id=":001_001_44" function="internal">
        <lane id=":001_001_44_0" index="0" speed="9.26" length="12.40" width="3.20" shape="403.20,393.07 404.60,395.40 408.35,397.65 413.60,398.40"/>
    </edge>
    <edge id=":001_001_45" function="internal">
        <lane id=":001_001_45_0" index="0" speed="10.10" length="17.25" width="3.20" shape="400.00,392.12 396.69,396.69 391.80,400.23 386.40,401.60"/>
    </edge>
    <edge id=":001_001_27" function="internal">
        <lane id=":001_001_27_0" index="0" speed="6.51" length="9.03" width="3.20" shape="386.40,392.00 388.85,391.65 390.60,390.60 391.65,388.85 392.00,386.40"/>
    </edge>
    <edge id=":001_001_28" function="internal">
        <lane id=":001_001_28_0" index="0" speed="11.18" length="27.20" width="3.20" shape="386.40,392.00 413.60,392.00"/>
    </edge>
    <edge id=":001_001_29" function="internal">
        <lane id=":001_001_29_0" index="0" speed="11.18" length="32.49" width="3.20" shape="386.40,392.00 393.52,394.13 400.53,399.47 405.88,406.48 408.00,413.60"/>
    </edge>
    <edge id=":001_001_30" function="internal">
        <lane id=":001_001_30_0" index="0" speed="8.00" length="14.19" width="3.20" shape="386.40,395.20 390.25,394.65 393.00,393.00 394.65,390.25 395.20,386.40"/>
    </edge>
    <edge id=":001_001_31" function="internal">
        <lane id=":001_001_31_0" index="0" speed="11.18" length="27.20" width="3.20" shape="386.40,395.20 413.60,395.20"/>
    </edge>
    <edge id=":001_001_32" function="internal">
        <lane id=":001_001_32_0" index="0" speed="11.07" length="28.10" width="3.20" shape="386.40,395.20 392.93,396.86 398.85,401.15 403.14,407.07 404.80,413.60"/>
    </edge>
    <edge id=":001_001_33" function="internal">
        <lane id=":001_001_33_0" index="0" speed="9.26" length="19.35" width="3.20" shape="386.40,398.40 391.65,397.65 395.40,395.40 397.65,391.65 398.40,386.40"/>
    </edge>
    <edge id=":001_001_34" function="internal">
        <lane id=":001_001_34_0" index="0" speed="11.18" length="27.20" width="3.20" shape="386.40,398.40 413.60,398.40"/>
    </edge>
    <edge id=":001_001_35" function="internal">
        <lane id=":001_001_35_0" index="0" speed="10.10" length="23.22" width="3.20" shape="386.40,398.40 391.80,399.77 396.69,403.31 400.23,408.20 401.60,413.60"/>
    </edge>
    <edge id=":002_001_0" function="internal">
        <lane id=":002_001_0_0" index="0" speed="6.51" length="9.03" width="3.20" shape="592.00,413.60 591.65,411.15 590.60,409.40 588.85,408.35 586.40,408.00"/>
    </edge>
    <edge id=":002_001_1" function="internal">
        <lane id=":002_001_1_0" index="0" speed="11.18" length="27.20" width="3.20" shape="592.00,413.60 592.00,386.40"/>
    </edge>
    <edge id=":002_001_2" function="internal">
        <lane id=":002_001_2_0" index="0" speed="11.18" length="6.41" width="3.20" shape="592.00,413.60 593.83,407.45"/>
    </edge>
    <edge id=":002_001_3" function="internal">
        <lane id=":002_001_3_0" index="0" speed="8.00" length="5.93" width="3.20" shape="595.20,413.60 594.65,409.75 593.60,408.00"/>
    </edge>
    <edge id=":002_001_4" function="internal">
        <lane id=":002_001_4_0" index="0" speed="11.18" length="27.20" width="3.20" shape="595.20,413.60 595.20,386.40"/>
    </edge>
    <edge id=":002_001_5" function="internal">
        <lane id=":002_001_5_0" index="0" speed="11.07" length="11.48" width="3.20" shape="595.20,413.60 596.86,407.07 599.64,403.23"/>
    </edge>
    <edge id=":002_001_6" function="internal">
        <lane id=":002_001_6_0" index="0" speed="9.26" length="6.96" width="3.20" shape="598.40,413.60 597.65,408.35 596.80,406.93"/>
    </edge>
    <edge id=":002_001_7" function="internal">
        <lane id=":002_001_7_0" index="0" speed="11.18" length="27.20" width="3.20" shape="598.40,413.60 598.40,386.40"/>
    </edge>
    <edge id=":002_001_8" function="internal">
        <lane id=":002_001_8_0" index="0" speed="10.10" length="5.96" width="3.20" shape="598.40,413.60 599.77,408.20 600.00,407.88"/>
    </edge>
    <edge id=":002_001_36" function="internal">
        <lane id=":002_001_36_0" index="0" speed="11.18" length="26.08" width="3.20" shape="593.83,407.45 594.13,406.48 599.47,399.47 606.48,394.13 613.60,392.00"/>
    </edge>
    <edge id=":002_001_37" function="internal">
        <lane id=":002_001_37_0" index="0" speed="8.00" length="8.26" width="3.20" shape="593.60,408.00 593.00,407.00 590.25,405.35 586.40,404.80"/>
    </edge>
    <edge id=":002_001_38" function="internal">
        <lane id=":002_001_38_0" index="0" speed="11.07" length="16.62" width="3.20" shape="599.64,403.23 601.15,401.15 607.07,396.86 613.60,395.20"/>
    </edge>
    <edge id=":002_001_39" function="internal">
        <lane id=":002_001_39_0" index="0" speed="9.26" length="12.40" width="3.20" shape="596.80,406.93 595.40,404.60 591.65,402.35 586.40,401.60"/>
    </edge>
    <edge id=":002_001_40" function="internal">
        <lane id=":002_001_40_0" index="0" speed="10.10" length="17.25" width="3.20" shape="600.00,407.88 603.31,403.31 608.20,399.77 613.60,398.40"/>
    </edge>
    <edge id=":002_001_9" function="internal">
        <lane id=":002_001_9_0" index="0" speed="6.51" length="9.03" width="3.20" shape="613.60,408.00 611.15,408.35 609.40,409.40 608.35,411.15 608.00,413.60"/>
    </edge>
    <edge id=":002_001_10" function="internal">
        <lane id=":002_001_10_0" index="0" speed="11.18" length="27.20" width="3.20" shape="613.60,408.00 586.40,408.00"/>
    </edge>
    <edge id=":002_001_11" function="internal">
        <lane id=":002_001_11_0" index="0" speed="11.18" length="32.49" width="3.20" shape="613.60,408.00 606.48,405.88 599.47,400.53 594.13,393.52 592.00,386.40"/>
    </edge>
    <edge id=":002_001_12" function="internal">
        <lane id=":002_001_12_0" index="0" speed="8.00" length="14.19" width="3.20" shape="613.60,404.80 609.75,405.35 607.00,407.00 605.35,409.75 604.80,413.60"/>
    </edge>
    <edge id=":002_001_13" function="internal">
        <lane id=":002_001_13_0" index="0" speed="11.18" length="27.20" width="3.20" shape="613.60,404.80 586.40,404.80"/>
    </edge>
    <edge id=":002_001_14" function="internal">
        <lane id=":002_001_14_0" index="0" speed="11.07" length="28.10" width="3.20" shape="613.60,404.80 607.07,403.14 601.15,398.85 596.86,392.93 595.20,386.40"/>
    </edge>
    <edge id=":002_001_15" function="internal">
        <lane id=":002_001_15_0" index="0" speed="9.26" length="19.35" width="3.20" shape="613.60,401.60 608.35,402.35 604.60,404.60 602.35,408.35 601.60,413.60"/>
    </edge>
    <edge id=":002_001_16" function="internal">
        <lane id=":002_001_16_0" index="0" speed="11.18" length="27.20" width="3.20" shape="613.60,401.60 586.40,401.60"/>
    </edge>
    <edge id=":002_001_17" function="internal">
        <lane id=":002_001_17_0" index="0" speed="10.10" length="23.22" width="3.20" shape="613.60,401.60 608.20,400.23 603.31,396.69 599.77,391.80 598.40,386.40"/>
    </edge>
    <edge id=":002_001_18" function="internal">
        <lane id=":002_001_18_0" index="0" speed="6.51" length="9.03" width="3.20" shape="608.00,386.40 608.35,388.85 609.40,390.60 611.15,391.65 613.60,392.00"/>
    </edge>
    <edge id=":002_001_19" function="internal">
        <lane id=":002_001_19_0" index="0" speed="11.18" length="27.20" width="3.20" shape="608.00,386.40 608.00,413.60"/>
    </edge>
    <edge id=":002_001_20" function="internal">
        <lane id=":002_001_20_0" index="0" speed="11.18" length="6.41" width="3.20" shape="608.00,386.40 606.17,392.55"/>
    </edge>
    <edge id=":002_001_21" function="internal">
        <lane id=":002_001_21_0" index="0" speed="8.00" length="5.93" width="3.20" shape="604.80,386.40 605.35,390.25 606.40,392.00"/>
    </edge>
    <edge id=":002_001_22" function="internal">
        <lane id=":002_001_22_0" index="0" speed="11.18" length="27.20" width="3.20" shape="604.80,386.40 604.80,413.60"/>
    </edge>
    <edge id=":002_001_23" function="internal">
        <lane id=":002_001_23_0" index="0" speed="11.07" length="11.48" width="3.20" shape="604.80,386.40 603.14,392.93 600.36,396.77"/>
    </edge>
    <edge id=":002_001_24" function="internal">
        <lane id=":002_001_24_0" index="0" speed="9.26" length="6.96" width="3.20" shape="601.60,386.40 602.35,391.65 603.20,393.07"/>
    </edge>
    <edge id=":002_001_25" function="internal">
        <lane id=":002_001_25_0" index="0" speed="11.18" length="27.20" width="3.20" shape="601.60,386.40 601.60,413.60"/>
    </edge>
    <edge id=":002_001_26" function="internal">
        <lane id=":002_001_26_0" index="0" speed="10.10" length="5.96" width="3.20" shape="601.60,386.40 600.23,391.80 600.00,392.12"/>
    </edge>
    <edge id=":002_001_41" function="internal">
        <lane id=":002_001_41_0" index="0" speed="11.18" length="26.08" width="3.20" shape="606.17,392.55 605.88,393.52 600.53,400.53 593.52,405.88 586.40,408.00"/>
    </edge>
    <edge id=":002_001_42" function="internal">
        <lane id=":002_001_42_0" index="0" speed="8.00" length="8.26" width="3.20" shape="606.40,392.00 607.00,393.00 609.75,394.65 613.60,395.20"/>
    </edge>
    <edge id=":002_001_43" function="internal">
        <lane id=":002_001_43_0" index="0" speed="11.07" length="16.62" width="3.20" shape="600.36,396.77 598.85,398.85 592.93,403.14 586.40,404.80"/>
    </edge>
    <edge id=":002_001_44" function="internal">
        <lane id=":002_001_44_0" index="0" speed="9.26" length="12.40" width="3.20" shape="603.20,393.07 604.60,395.40 608.35,397.65 613.60,398.40"/>
    </edge>
    <edge id=":002_001_45" function="internal">
        <lane id=":002_001_45_0" index="0" speed="10.10" length="17.25" width="3.20" shape="600.00,392.12 596.69,396.69 591.80,400.23 586.40,401.60"/>
    </edge>
    <edge id=":002_001_27" function="internal">
        <lane id=":002_001_27_0" index="0" speed="6.51" length="9.03" width="3.20" shape="586.40,392.00 588.85,391.65 590.60,390.60 591.65,388.85 592.00,386.40"/>
    </edge>
    <edge id=":002_001_28" function="internal">
        <lane id=":002_001_28_0" index="0" speed="11.18" length="27.20" width="3.20" shape="586.40,392.00 613.60,392.00"/>
    </edge>
    <edge id=":002_001_29" function="internal">
        <lane id=":002_001_29_0" index="0" speed="11.18" length="32.49" width="3.20" shape="586.40,392.00 593.52,394.13 600.53,399.47 605.88,406.48 608.00,413.60"/>
    </edge>
    <edge id=":002_001_30" function="internal">
        <lane id=":002_001_30_0" index="0" speed="8.00" length="14.19" width="3.20" shape="586.40,395.20 590.25,394.65 593.00,393.00 594.65,390.25 595.20,386.40"/>
    </edge>
    <edge id=":002_001_31" function="internal">
        <lane id=":002_001_31_0" index="0" speed="11.18" length="27.20" width="3.20" shape="586.40,395.20 613.60,395.20"/>
    </edge>
    <edge id=":002_001_32" function="internal">
        <lane id=":002_001_32_0" index="0" speed="11.07" length="28.10" width="3.20" shape="586.40,395.20 592.93,396.86 598.85,401.15 603.14,407.07 604.80,413.60"/>
    </edge>
    <edge id=":002_001_33" function="internal">
        <lane id=":002_001_33_0" index="0" speed="9.26" length="19.35" width="3.20" shape="586.40,398.40 591.65,397.65 595.40,395.40 597.65,391.65 598.40,386.40"/>
    </edge>
    <edge id=":002_001_34" function="internal">
        <lane id=":002_001_34_0" index="0" speed="11.18" length="27.20" width="3.20" shape="586.40,398.40 613.60,398.40"/>
    </edge>
    <edge id=":002_001_35" function="internal">
        <lane id=":002_001_35_0" index="0" speed="10.10" length="23.22" width="3.20" shape="586.40,398.40 591.80,399.77 596.69,403.31 600.23,408.20 601.60,413.60"/>
    </edge>

    <edge id="000_001_3" from="001_001" to="000_001" priority="3" length="200.00">
        <lane id="000_001_3_0" index="0" speed="11.18" length="200.00" width="3.20" shape="386.40,408.00 200.00,408.00"/>
        <lane id="000_001_3_1" index="1" speed="11.18" length="200.00" width="3.20" shape="386.40,404.80 200.00,404.80"/>
        <lane id="000_001_3_2" index="2" speed="11.18" length="200.00" width="3.20" shape="386.40,401.60 200.00,401.60"/>
    </edge>
    <edge id="001_000_2" from="001_001" to="001_000" priority="3" length="200.00">
        <lane id="001_000_2_0" index="0" speed="11.18" length="200.00" width="3.20" shape="392.00,386.40 392.00,200.00"/>
        <lane id="001_000_2_1" index="1" speed="11.18" length="200.00" width="3.20" shape="395.20,386.40 395.20,200.00"/>
        <lane id="001_000_2_2" index="2" speed="11.18" length="200.00" width="3.20" shape="398.40,386.40 398.40,200.00"/>
    </edge>
    <edge id="001_001_1" from="000_001" to="001_001" priority="3" length="200.00">
        <lane id="001_001_1_0" index="0" speed="11.18" length="200.00" width="3.20" shape="200.00,392.00 386.40,392.00"/>
        <lane id="001_001_1_1" index="1" speed="11.18" length="200.00" width="3.20" shape="200.00,395.20 386.40,395.20"/>
        <lane id="001_001_1_2" index="2" speed="11.18" length="200.00" width="3.20" shape="200.00,398.40 386.40,398.40"/>
    </edge>
    <edge id="001_001_2" from="001_002" to="001_001" priority="3" length="200.00">
        <lane id="001_001_2_0" index="0" speed="11.18" length="200.00" width="3.20" shape="392.00,600.00 392.00,413.60"/>
        <lane id="001_001_2_1" index="1" speed="11.18" length="200.00" width="3.20" shape="395.20,600.00 395.20,413.60"/>
        <lane id="001_001_2_2" index="2" speed="11.18" length="200.00" width="3.20" shape="398.40,600.00 398.40,413.60"/>
    </edge>
    <edge id="001_001_3" from="002_001" to="001_001" priority="3" length="200.00">
        <lane id="001_001_3_0" index="0" speed="11.18" length="200.00" width="3.20" shape="586.40,408.00 413.60,408.00"/>
        <lane id="001_001_3_1" index="1" speed="11.18" length="200.00" width="3.20" shape="586.40,404.80 413.60,404.80"/>
        <lane id="001_001_3_2" index="2" speed="11.18" length="200.00" width="3.20" shape="586.40,401.60 413.60,401.60"/>
    </edge>
    <edge id="001_001_4" from="001_000" to="001_001" priority="3" length="200.00">
        <lane id="001_001_4_0" index="0" speed="11.18" length="200.00" width="3.20" shape="408.00,200.00 408.00,386.40"/>
        <lane id="001_001_4_1" index="1" speed="11.18" length="200.00" width="3.20" shape="404.80,200.00 404.80,386.40"/>
        <lane id="001_001_4_2" index="2" speed="11.18" length="200.00" width="3.20" shape="401.60,200.00 401.60,386.40"/>
    </edge>
    <edge id="001_002_4" from="001_001" to="001_002" priority="3" length="200.00">
        <lane id="001_002_4_0" index="0" speed="11.18" length="200.00" width="3.20" shape="408.00,413.60 408.00,600.00"/>
        <lane id="001_002_4_1" index="1" speed="11.18" length="200.00" width="3.20" shape="404.80,413.60 404.80,600.00"/>
        <lane id="001_002_4_2" index="2" speed="11.18" length="200.00" width="3.20" shape="401.60,413.60 401.60,600.00"/>
    </edge>
    <edge id="002_000_2" from="002_001" to="002_000" priority="3" length="200.00">
        <lane id="002_000_2_0" index="0" speed="11.18" length="200.00" width="3.20" shape="592.00,386.40 592.00,200.00"/>
        <lane id="002_000_2_1" index="1" speed="11.18" length="200.00" width="3.20" shape="595.20,386.40 595.20,200.00"/>
        <lane id="002_000_2_2" index="2" speed="11.18" length="200.00" width="3.20" shape="598.40,386.40 598.40,200.00"/>
    </edge>
    <edge id="002_001_1" from="001_001" to="002_001" priority="3" length="200.00">
        <lane id="002_001_1_0" index="0" speed="11.18" length="200.00" width="3.20" shape="413.60,392.00 586.40,392.00"/>
        <lane id="002_001_1_1" index="1" speed="11.18" length="200.00" width="3.20" shape="413.60,395.20 586.40,395.20"/>
        <lane id="002_001_1_2" index="2" speed="11.18" length="200.00" width="3.20" shape="413.60,398.40 586.40,398.40"/>
    </edge>
    <edge id="002_001_2" from="002_002" to="002_001" priority="3" length="200.00">
        <lane id="002_001_2_0" index="0" speed="11.18" length="200.00" width="3.20" shape="592.00,600.00 592.00,413.60"/>
        <lane id="002_001_2_1" index="1" speed="11.18" length="200.00" width="3.20" shape="595.20,600.00 595.20,413.60"/>
        <lane id="002_001_2_2" index="2" speed="11.18" length="200.00" width="3.20" shape="598.40,600.00 598.40,413.60"/>
    </edge>
    <edge id="002_001_3" from="003_001" to="002_001" priority="3" length="200.00">
        <lane id="002_001_3_0" index="0" speed="11.18" length="200.00" width="3.20" shape="800.00,408.00 613.60,408.00"/>
        <lane id="002_001_3_1" index="1" speed="11.18" length="200.00" width="3.20" shape="800.00,404.80 613.60,404.80"/>
        <lane id="002_001_3_2" index="2" speed="11.18" length="200.00" width="3.20" shape="800.00,401.60 613.60,401.60"/>
    </edge>
    <edge id="002_001_4" from="002_000" to="002_001" priority="3" length="200.00">
        <lane id="002_001_4_0" index="0" speed="11.18" length="200.00" width="3.20" shape="608.00,200.00 608.00,386.40"/>
        <lane id="002_001_4_1" index="1" speed="11.18" length="200.00" width="3.20" shape="604.80,200.00 604.80,386.40"/>
        <lane id="002_001_4_2" index="2" speed="11.18" length="200.00" width="3.20" shape="601.60,200.00 601.60,386.40"/>
    </edge>
    <edge id="002_002_4" from="002_001" to="002_002" priority="3" length="200.00">
        <lane id="002_002_4_0" index="0" speed="11.18" length="200.00" width="3.20" shape="608.00,413.60 608.00,600.00"/>
        <lane id="002_002_4_1" index="1" speed="11.18" length="200.00" width="3.20" shape="604.80,413.60 604.80,600.00"/>
        <lane id="002_002_4_2" index="2" speed="11.18" length="200.00" width="3.20" shape="601.60,413.60 601.60,600.00"/>
    </edge>
    <edge id="003_001_1" from="002_001" to="003_001" priority="3" length="200.00">
        <lane id="003_001_1_0" index="0" speed="11.18" length="200.00" width="3.20" shape="613.60,392.00 800.00,392.00"/>
        <lane id="003_001_1_1" index="1" speed="11.18" length="200.00" width="3.20" shape="613.60,395.20 800.00,395.20"/>
        <lane id="003_001_1_2" index="2" speed="11.18" length="200.00" width="3.20" shape="613.60,398.40 800.00,398.40"/>
    </edge>

    <junction id="000_001" type="dead_end" x="200.00" y="400.00" incLanes="000_001_3_0 000_001_3_1 000_001_3_2" intLanes="" shape="200.00,400.00 200.00,409.60 200.00,400.00"/>
    <junction id="001_000" type="dead_end" x="400.00" y="200.00" incLanes="001_000_2_0 001_000_2_1 001_000_2_2" intLanes="" shape="400.00,200.00 390.40,200.00 400.00,200.00"/>
    <junction id="001_001" type="priority" x="400.00" y="400.00" incLanes="001_001_2_0 001_001_2_1 001_001_2_2 001_001_3_0 001_001_3_1 001_001_3_2 001_001_4_0 001_001_4_1 001_001_4_2 001_001_1_0 001_001_1_1 001_001_1_2" intLanes=":001_001_0_0 :001_001_1_0 :001_001_36_0 :001_001_37_0 :001_001_4_0 :001_001_38_0 :001_001_39_0 :001_001_7_0 :001_001_40_0 :001_001_9_0 :001_001_10_0 :001_001_11_0 :001_001_12_0 :001_001_13_0 :001_001_14_0 :001_001_15_0 :001_001_16_0 :001_001_17_0 :001_001_18_0 :001_001_19_0 :001_001_41_0 :001_001_42_0 :001_001_22_0 :001_001_43_0 :001_001_44_0 :001_001_25_0 :001_001_45_0 :001_001_27_0 :001_001_28_0 :001_001_29_0 :001_001_30_0 :001_001_31_0 :001_001_32_0 :001_001_33_0 :001_001_34_0 :001_001_35_0" shape="390.40,413.60 409.60,413.60 410.04,411.38 410.60,410.60 411.38,410.04 412.38,409.71 413.60,409.60 413.60,390.40 411.38,389.96 410.60,389.40 410.04,388.62 409.71,387.62 409.60,386.40 390.40,386.40 389.96,388.62 389.40,389.40 388.62,389.96 387.62,390.29 386.40,390.40 386.40,409.60 388.62,410.04 389.40,410.60 389.96,411.38 390.29,412.38">
        <request index="0"  response="000000000000000000000000000000000000" foes="000000000100100100010010010000000000" cont="0"/>
        <request index="1"  response="000000000000000000000000000000000000" foes="111111111100100100110110110001001000" cont="0"/>
        <request index="2"  response="000000000011111111000000000010010000" foes="110110110011111111110110110011011000" cont="1"/>
        <request index="3"  response="000000000000000000000000000000000110" foes="000000000100100100010010010000000110" cont="1"/>
        <request index="4"  response="000000000000000000000000000000000000" foes="111111111100100100110110110001000100" cont="0"/>
        <request index="5"  response="000000000011011111000000000010000000" foes="110110110011011111110110110011000000" cont="1"/>
        <request index="6"  response="000000000000000000000000000000110110" foes="000000000100100100010010010000110110" cont="1"/>
        <request index="7"  response="000000000000000000000000000000000000" foes="111111111100100100110110110000100100" cont="0"/>
        <request index="8"  response="000000000011011011000000000000000000" foes="110110110011011011110110110000000000" cont="1"/>
        <request index="9"  response="000000000010010010000000000000000000" foes="100100100010010010000000000000000000" cont="0"/>
        <request index="10" response="000000000110110110000000000111111111" foes="100100100110110110001001000111111111" cont="0"/>
        <request index="11" response="011011011110110110010010000110110110" foes="011111111110110110011011000110110110" cont="0"/>
        <request index="12" response="000000000010010010000000110000000000" foes="100100100010010010000000110000000000" cont="0"/>
        <request index="13" response="000000000110110110000000000111111111" foes="100100100110110110001000100111111111" cont="0"/>