<?xml version="1.0" encoding="UTF-8"?>

<!-- generated on Sat Jul 11 19:22:56 2020 by Eclipse SUMO netconvert Version 1.4.0
<configuration xmlns:xsi="http://www.w3.org/2001/XMLSchema-instance" xsi:noNamespaceSchemaLocation="http://sumo.dlr.de/xsd/netconvertConfiguration.xsd">

    <input>
        <node-files value="/Users/jacksonwang/Downloads/V2X/Roadrunner_v2_traffic_light/data/lane.nod.xml"/>
        <edge-files value="/Users/jacksonwang/Downloads/V2X/Roadrunner_v2_traffic_light/data/lane.edg.xml"/>
        <connection-files value="/Users/jacksonwang/Downloads/V2X/Roadrunner_v2_traffic_light/data/lane.con.xml"/>
    </input>

    <output>
        <output-file value="/Users/jacksonwang/Downloads/V2X/Roadrunner_v2_traffic_light/data/lane2by2.net.xml"/>
    </output>

    <report>
        <aggregate-warnings value="5"/>
    </report>

</configuration>
-->

<net version="1.3" junctionCornerDetail="5" limitTurnSpeed="5.50" xmlns:xsi="http://www.w3.org/2001/XMLSchema-instance" xsi:noNamespaceSchemaLocation="http://sumo.dlr.de/xsd/net_file.xsd">

    <location netOffset="186.40,186.40" convBoundary="0.00,0.00,1054.40,1054.40" origBoundary="-186.40,-186.40,868.00,868.00" projParameter="!"/>

    <edge id=":001_001_0" function="internal">
        <lane id=":001_001_0_0" index="0" speed="6.51" length="9.03" width="3.20" shape="405.60,427.20 405.25,424.75 404.20,423.00 402.45,421.95 400.00,421.60"/>
    </edge>
    <edge id=":001_001_1" function="internal">
        <lane id=":001_001_1_0" index="0" speed="11.18" length="6.41" width="3.20" shape="405.60,427.20 407.43,421.05"/>
    </edge>
    <edge id=":001_001_2" function="internal">
        <lane id=":001_001_2_0" index="0" speed="11.18" length="27.20" width="3.20" shape="405.60,427.20 405.60,400.00"/>
        <lane id=":001_001_2_1" index="1" speed="11.18" length="27.20" width="3.20" shape="408.80,427.20 408.80,400.00"/>
    </edge>
    <edge id=":001_001_4" function="internal">
        <lane id=":001_001_4_0" index="0" speed="8.00" length="5.93" width="3.20" shape="408.80,427.20 408.25,423.35 407.20,421.60"/>
    </edge>
    <edge id=":001_001_5" function="internal">
        <lane id=":001_001_5_0" index="0" speed="11.07" length="11.48" width="3.20" shape="408.80,427.20 410.46,420.67 413.24,416.83"/>
    </edge>
    <edge id=":001_001_6" function="internal">
        <lane id=":001_001_6_0" index="0" speed="9.26" length="6.96" width="3.20" shape="412.00,427.20 411.25,421.95 410.40,420.53"/>
    </edge>
    <edge id=":001_001_7" function="internal">
        <lane id=":001_001_7_0" index="0" speed="11.18" length="27.20" width="3.20" shape="412.00,427.20 412.00,400.00"/>
    </edge>
    <edge id=":001_001_8" function="internal">
        <lane id=":001_001_8_0" index="0" speed="10.10" length="5.96" width="3.20" shape="412.00,427.20 413.37,421.80 413.60,421.48"/>
    </edge>
    <edge id=":001_001_36" function="internal">
        <lane id=":001_001_36_0" index="0" speed="11.18" length="26.08" width="3.20" shape="407.43,421.05 407.73,420.08 413.07,413.07 420.08,407.73 427.20,405.60"/>
    </edge>
    <edge id=":001_001_37" function="internal">
        <lane id=":001_001_37_0" index="0" speed="8.00" length="8.26" width="3.20" shape="407.20,421.60 406.60,420.60 403.85,418.95 400.00,418.40"/>
    </edge>
    <edge id=":001_001_38" function="internal">
        <lane id=":001_001_38_0" index="0" speed="11.07" length="16.62" width="3.20" shape="413.24,416.83 414.75,414.75 420.67,410.46 427.20,408.80"/>
    </edge>
    <edge id=":001_001_39" function="internal">
        <lane id=":001_001_39_0" index="0" speed="9.26" length="12.40" width="3.20" shape="410.40,420.53 409.00,418.20 405.25,415.95 400.00,415.20"/>
    </edge>
    <edge id=":001_001_40" function="internal">
        <lane id=":001_001_40_0" index="0" speed="10.10" length="17.25" width="3.20" shape="413.60,421.48 416.91,416.91 421.80,413.37 427.20,412.00"/>
    </edge>
    <edge id=":001_001_9" function="internal">
        <lane id=":001_001_9_0" index="0" speed="6.51" length="9.03" width="3.20" shape="427.20,421.60 424.75,421.95 423.00,423.00 421.95,424.75 421.60,427.20"/>
    </edge>
    <edge id=":001_001_10" function="internal">
        <lane id=":001_001_10_0" index="0" speed="11.18" length="32.49" width="3.20" shape="427.20,421.60 420.08,419.48 413.07,414.13 407.73,407.12 405.60,400.00"/>
    </edge>
    <edge id=":001_001_11" function="internal">
        <lane id=":001_001_11_0" index="0" speed="11.18" length="27.20" width="3.20" shape="427.20,421.60 400.00,421.60"/>
        <lane id=":001_001_11_1" index="1" speed="11.18" length="27.20" width="3.20" shape="427.20,418.40 400.00,418.40"/>
    </edge>
    <edge id=":001_001_13" function="internal">
        <lane id=":001_001_13_0" index="0" speed="8.00" length="14.19" width="3.20" shape="427.20,418.40 423.35,418.95 420.60,420.60 418.95,423.35 418.40,427.20"/>
    </edge>
    <edge id=":001_001_14" function="internal">
        <lane id=":001_001_14_0" index="0" speed="11.07" length="28.10" width="3.20" shape="427.20,418.40 420.67,416.74 414.75,412.45 410.46,406.53 408.80,400.00"/>
    </edge>
    <edge id=":001_001_15" function="internal">
        <lane id=":001_001_15_0" index="0" speed="9.26" length="19.35" width="3.20" shape="427.20,415.20 421.95,415.95 418.20,418.20 415.95,421.95 415.20,427.20"/>
    </edge>
    <edge id=":001_001_16" function="internal">
        <lane id=":001_001_16_0" index="0" speed="11.18" length="27.20" width="3.20" shape="427.20,415.20 400.00,415.20"/>
    </edge>
    <edge id=":001_001_17" function="internal">
        <lane id=":001_001_17_0" index="0" speed="10.10" length="23.22" width="3.20" shape="427.20,415.20 421.80,413.83 416.91,410.29 413.37,405.40 412.00,400.00"/>
    </edge>
    <edge id=":001_001_18" function="internal">
        <lane id=":001_001_18_0" index="0" speed="6.51" length="9.03" width="3.20" shape="421.60,400.00 421.95,402.45 423.00,404.20 424.75,405.25 427.20,405.60"/>
    </edge>
    <edge id=":001_001_19" function="internal">
        <lane id=":001_001_19_0" index="0" speed="11.18" length="6.41" width="3.20" shape="421.60,400.00 419.77,406.15"/>
    </edge>
    <edge id=":001_001_20" function="internal">
        <lane id=":001_001_20_0" index="0" speed="11.18" length="27.20" width="3.20" shape="421.60,400.00 421.60,427.20"/>
        <lane id=":001_001_20_1" index="1" speed="11.18" length="27.20" width="3.20" shape="418.40,400.00 418.40,427.20"/>
    </edge>
    <edge id=":001_001_22" function="internal">
        <lane id=":001_001_22_0" index="0" speed="8.00" length="5.93" width="3.20" shape="418.40,400.00 418.95,403.85 420.00,405.60"/>
    </edge>
    <edge id=":001_001_23" function="internal">
        <lane id=":001_001_23_0" index="0" speed="11.07" length="11.48" width="3.20" shape="418.40,400.00 416.74,406.53 413.96,410.37"/>
    </edge>
    <edge id=":001_001_24" function="internal">
        <lane id=":001_001_24_0" index="0" speed="9.26" length="6.96" width="3.20" shape="415.20,400.00 415.95,405.25 416.80,406.67"/>
    </edge>
    <edge id=":001_001_25" function="internal">
        <lane id=":001_001_25_0" index="0" speed="11.18" length="27.20" width="3.20" shape="415.20,400.00 415.20,427.20"/>
    </edge>
    <edge id=":001_001_26" function="internal">
        <lane id=":001_001_26_0" index="0" speed="10.10" length="5.96" width="3.20" shape="415.20,400.00 413.83,405.40 413.60,405.72"/>
    </edge>
    <edge id=":001_001_41" function="internal">
        <lane id=":001_001_41_0" index="0" speed="11.18" length="26.08" width="3.20" shape="419.77,406.15 419.48,407.12 414.13,414.13 407.12,419.48 400.00,421.60"/>
    </edge>
    <edge id=":001_001_42" function="internal">
        <lane id=":001_001_42_0" index="0" speed="8.00" length="8.26" width="3.20" shape="420.00,405.60 420.60,406.60 423.35,408.25 427.20,408.80"/>
    </edge>
    <edge id=":001_001_43" function="internal">
        <lane id=":001_001_43_0" index="0" speed="11.07" length="16.62" width="3.20" shape="413.96,410.37 412.45,412.45 406.53,416.74 400.00,418.40"/>
    </edge>
    <edge id=":001_001_44" function="internal">
        <lane id=":001_001_44_0" index="0" speed="9.26" length="12.40" width="3.20" shape="416.80,406.67 418.20,409.00 421.95,411.25 427.20,412.00"/>
    </edge>
    <edge id=":001_001_45" function="internal">
        <lane id=":001_001_45_0" index="0" speed="10.10" length="17.25" width="3.20" shape="413.60,405.72 410.29,410.29 405.40,413.83 400.00,415.20"/>
    </edge>
    <edge id=":001_001_27" function="internal">
        <lane id=":001_001_27_0" index="0" speed="6.51" length="9.03" width="3.20" shape="400.00,405.60 402.45,405.25 404.20,404.20 405.25,402.45 405.60,400.00"/>
    </edge>
    <edge id=":001_001_28" function="internal">
        <lane id=":001_001_28_0" index="0" speed="11.18" length="32.49" width="3.20" shape="400.00,405.60 407.12,407.73 414.13,413.07 419.48,420.08 421.60,427.20"/>
    </edge>
    <edge id=":001_001_29" function="internal">
        <lane id=":001_001_29_0" index="0" speed="11.18" length="27.20" width="3.20" shape="400.00,405.60 427.20,405.60"/>
        <lane id=":001_001_29_1" index="1" speed="11.18" length="27.20" width="3.20" shape="400.00,408.80 427.20,408.80"/>
    </edge>
    <edge id=":001_001_31" function="internal">
        <lane id=":001_001_31_0" index="0" speed="8.00" length="14.19" width="3.20" shape="400.00,408.80 403.85,408.25 406.60,406.60 408.25,403.85 408.80,400.00"/>
    </edge>
    <edge id=":001_001_32" function="internal">
        <lane id=":001_001_32_0" index="0" speed="11.07" length="28.10" width="3.20" shape="400.00,408.80 406.53,410.46 412.45,414.75 416.74,420.67 418.40,427.20"/>
    </edge>
    <edge id=":001_001_33" function="internal">
        <lane id=":001_001_33_0" index="0" speed="9.26" length="19.35" width="3.20" shape="400.00,412.00 405.25,411.25 409.00,409.00 411.25,405.25 412.00,400.00"/>
    </edge>
    <edge id=":001_001_34" function="internal">
        <lane id=":001_001_34_0" index="0" speed="11.18" length="27.20" width="3.20" shape="400.00,412.00 427.20,412.00"/>
    </edge>
    <edge id=":001_001_35" function="internal">
        <lane id=":001_001_35_0" index="0" speed="10.10" length="23.22" width="3.20" shape="400.00,412.00 405.40,413.37 410.29,416.91 413.83,421.80 415.20,427.20"/>
    </edge>
    <edge id=":001_002_0" function="internal">
        <lane id=":001_002_0_0" index="0" speed="6.51" length="9.03" width="3.20" shape="405.60,654.40 405.25,651.95 404.20,650.20 402.45,649.15 400.00,648.80"/>
    </edge>
    <edge id=":001_002_1" function="internal">
        <lane id=":001_002_1_0" index="0" speed="11.18" length="6.41" width="3.20" shape="405.60,654.40 407.43,648.25"/>
    </edge>
    <edge id=":001_002_2" function="internal">
        <lane id=":001_002_2_0" index="0" speed="11.18" length="27.20" width="3.20" shape="405.60,654.40 405.60,627.20"/>
        <lane id=":001_002_2_1" index="1" speed="11.18" length="27.20" width="3.20" shape="408.80,654.40 408.80,627.20"/>
    </edge>
    <edge id=":001_002_4" function="internal">
        <lane id=":001_002_4_0" index="0" speed="8.00" length="5.93" width="3.20" shape="408.80,654.40 408.25,650.55 407.20,648.80"/>
    </edge>
    <edge id=":001_002_5" function="internal">
        <lane id=":001_002_5_0" index="0" speed="11.07" length="11.48" width="3.20" shape="408.80,654.40 410.46,647.87 413.24,644.03"/>
    </edge>
    <edge id=":001_002_6" function="internal">
        <lane id=":001_002_6_0" index="0" speed="9.26" length="6.96" width="3.20" shape="412.00,654.40 411.25,649.15 410.40,647.73"/>
    </edge>
    <edge id=":001_002_7" function="internal">
        <lane id=":001_002_7_0" index="0" speed="11.18" length="27.20" width="3.20" shape="412.00,654.40 412.00,627.20"/>
    </edge>
    <edge id=":001_002_8" function="internal">
        <lane id=":001_002_8_0" index="0" speed="10.10" length="5.96" width="3.20" shape="412.00,654.40 413.37,649.00 413.60,648.68"/>
    </edge>
    <edge id=":001_002_36" function="internal">
        <lane id=":001_002_36_0" index="0" speed="11.18" length="26.08" width="3.20" shape="407.43,648.25 407.73,647.27 413.07,640.27 420.08,634.92 427.20,632.80"/>
    </edge>
    <edge id=":001_002_37" function="internal">
        <lane id=":001_002_37_0" index="0" speed="8.00" length="8.26" width="3.20" shape="407.20,648.80 406.60,647.80 403.85,646.15 400.00,645.60"/>
    </edge>
    <edge id=":001_002_38" function="internal">
        <lane id=":001_002_38_0" index="0" speed="11.07" length="16.62" width="3.20" shape="413.24,644.03 414.75,641.95 420.67,637.66 427.20,636.00"/>
    </edge>
    <edge id=":001_002_39" function="internal">
        <lane id=":001_002_39_0" index="0" speed="9.26" length="12.40" width="3.20" shape="410.40,647.73 409.00,645.40 405.25,643.15 400.00,642.40"/>
    </edge>
    <edge id=":001_002_40" function="internal">
        <lane id=":001_002_40_0" index="0" speed="10.10" length="17.25" width="3.20" shape="413.60,648.68 416.91,644.11 421.80,640.57 427.20,639.20"/>
    </edge>
    <edge id=":001_002_9" function="internal">
        <lane id=":001_002_9_0" index="0" speed="6.51" length="9.03" width="3.20" shape="427.20,648.80 424.75,649.15 423.00,650.20 421.95,651.95 421.60,654.40"/>
    </edge>
    <edge id=":001_002_10" function="internal">
        <lane id=":001_002_10_0" index="0" speed="11.18" length="32.49" width="3.20" shape="427.20,648.80 420.08,646.67 413.07,641.33 407.73,634.32 405.60,627.20"/>
    </edge>
    <edge id=":001_002_11" function="internal">
        <lane id=":001_002_11_0" index="0" speed="11.18" length="27.20" width="3.20" shape="427.20,648.80 400.00,648.80"/>
        <lane id=":001_002_11_1" index="1" speed="11.18" length="27.20" width="3.20" shape="427.20,645.60 400.00,645.60"/>
    </edge>
    <edge id=":001_002_13" function="internal">
        <lane id=":001_002_13_0" index="0" speed="8.00" length="14.19" width="3.20" shape="427.20,645.60 423.35,646.15 420.60,647.80 418.95,650.55 418.40,654.40"/>
    </edge>
    <edge id=":001_002_14" function="internal">
        <lane id=":001_002_14_0" index="0" speed="11.07" length="28.10" width="3.20" shape="427.20,645.60 420.67,643.94 414.75,639.65 410.46,633.73 408.80,627.20"/>
    </edge>
    <edge id=":001_002_15" function="internal">
        <lane id=":001_002_15_0" index="0" speed="9.26" length="19.35" width="3.20" shape="427.20,642.40 421.95,643.15 418.20,645.40 415.95,649.15 415.20,654.40"/>
    </edge>
    <edge id=":001_002_16" function="internal">
        <lane id=":001_002_16_0" index="0" speed="11.18" length="27.20" width="3.20" shape="427.20,642.40 400.00,642.40"/>
    </edge>
    <edge id=":001_002_17" function="internal">
        <lane id=":001_002_17_0" index="0" speed="10.10" length="23.22" width="3.20" shape="427.20,642.40 421.80,641.03 416.91,637.49 413.37,632.60 412.00,627.20"/>
    </edge>
    <edge id=":001_002_18" function="internal">
        <lane id=":001_002_18_0" index="0" speed="6.51" length="9.03" width="3.20" shape="421.60,627.20 421.95,629.65 423.00,631.40 424.75,632.45 427.20,632.80"/>
    </edge>
    <edge id=":001_002_19" function="internal">
        <lane id=":001_002_19_0" index="0" speed="11.18" length="6.41" width="3.20" shape="421.60,627.20 419.77,633.35"/>
    </edge>
    <edge id=":001_002_20" function="internal">
        <lane id=":001_002_20_0" index="0" speed="11.18" length="27.20" width="3.20" shape="421.60,627.20 421.60,654.40"/>
        <lane id=":001_002_20_1" index="1" speed="11.18" length="27.20" width="3.20" shape="418.40,627.20 418.40,654.40"/>
    </edge>
    <edge id=":001_002_22" function="internal">
        <lane id=":001_002_22_0" index="0" speed="8.00" length="5.93" width="3.20" shape="418.40,627.20 418.95,631.05 420.00,632.80"/>
    </edge>
    <edge id=":001_002_23" function="internal">
        <lane id=":001_002_23_0" index="0" speed="11.07" length="11.48" width="3.20" shape="418.40,627.20 416.74,633.73 413.96,637.57"/>
    </edge>
    <edge id=":001_002_24" function="internal">
        <lane id=":001_002_24_0" index="0" speed="9.26" length="6.96" width="3.20" shape="415.20,627.20 415.95,632.45 416.80,633.87"/>
    </edge>
    <edge id=":001_002_25" function="internal">
        <lane id=":001_002_25_0" index="0" speed="11.18" length="27.20" width="3.20" shape="415.20,627.20 415.20,654.40"/>
    </edge>
    <edge id=":001_002_26" function="internal">
        <lane id=":001_002_26_0" index="0" speed="10.10" length="5.96" width="3.20" shape="415.20,627.20 413.83,632.60 413.60,632.92"/>
    </edge>
    <edge id=":001_002_41" function="internal">
        <lane id=":001_002_41_0" index="0" speed="11.18" length="26.08" width="3.20" shape="419.77,633.35 419.48,634.32 414.13,641.33 407.12,646.67 400.00,648.80"/>
    </edge>
    <edge id=":001_002_42" function="internal">
        <lane id=":001_002_42_0" index="0" speed="8.00" length="8.26" width="3.20" shape="420.00,632.80 420.60,633.80 423.35,635.45 427.20,636.00"/>
    </edge>
    <edge id=":001_002_43" function="internal">
        <lane id=":001_002_43_0" index="0" speed="11.07" length="16.62" width="3.20" shape="413.96,637.57 412.45,639.65 406.53,643.94 400.00,645.60"/>
    </edge>
    <edge id=":001_002_44" function="internal">
        <lane id=":001_002_44_0" index="0" speed="9.26" length="12.40" width="3.20" shape="416.80,633.87 418.20,636.20 421.95,638.45 427.20,639.20"/>
    </edge>
    <edge id=":001_002_45" function="internal">
        <lane id=":001_002_45_0" index="0" speed="10.10" length="17.25" width="3.20" shape="413.60,632.92 410.29,637.49 405.40,641.03 400.00,642.40"/>
    </edge>
    <edge id=":001_002_27" function="internal">
        <lane id=":001_002_27_0" index="0" speed="6.51" length="9.03" width="3.20" shape="400.00,632.80 402.45,632.45 404.20,631.40 405.25,629.65 405.60,627.20"/>
    </edge>
    <edge id=":001_002_28" function="internal">
        <lane id=":001_002_28_0" index="0" speed="11.18" length="32.49" width="3.20" shape="400.00,632.80 407.12,634.92 414.13,640.27 419.48,647.27 421.60,654.40"/>
    </edge>
    <edge id=":001_002_29" function="internal">
        <lane id=":001_002_29_0" index="0" speed="11.18" length="27.20" width="3.20" shape="400.00,632.80 427.20,632.80"/>
        <lane id=":001_002_29_1" index="1" speed="11.18" length="27.20" width="3.20" shape="400.00,636.00 427.20,636.00"/>
    </edge>
    <edge id=":001_002_31" function="internal">
        <lane id=":001_002_31_0" index="0" speed="8.00" length="14.19" width="3.20" shape="400.00,636.00 403.85,635.45 406.60,633.80 408.25,631.05 408.80,627.20"/>
    </edge>
    <edge id=":001_002_32" function="internal">
        <lane id=":001_002_32_0" index="0" speed="11.07" length="28.10" width="3.20" shape="400.00,636.00 406.53,637.66 412.45,641.95 416.74,647.87 418.40,654.40"/>
    </edge>
    <edge id=":001_002_33" function="internal">
        <lane id=":001_002_33_0" index="0" speed="9.26" length="19.35" width="3.20" shape="400.00,639.20 405.25,638.45 409.00,636.20 411.25,632.45 412.00,627.20"/>
    </edge>
    <edge id=":001_002_34" function="internal">
        <lane id=":001_002_34_0" index="0" speed="11.18" length="27.20" width="3.20" shape="400.00,639.20 427.20,639.20"/>
    </edge>
    <edge id=":001_002_35" function="internal">
        <lane id=":001_002_35_0" index="0" speed="10.10" length="23.22" width="3.20" shape="400.00,639.20 405.40,640.57 410.29,644.11 413.83,649.00 415.20,654.40"/>
    </edge>
    <edge id=":002_001_0" function="internal">
        <lane id=":002_001_0_0" index="0" speed="6.51" length="9.03" width="3.20" shape="632.80,427.20 632.45,424.75 631.40,423.00 629.65,421.95 627.20,421.60"/>
    </edge>
    <edge id=":002_001_1" function="internal">
        <lane id=":002_001_1_0" index="0" speed="11.18" length="6.41" width="3.20" shape="632.80,427.20 634.63,421.05"/>
    </edge>
    <edge id=":002_001_2" function="internal">
        <lane id=":002_001_2_0" index="0" speed="11.18" length="27.20" width="3.20" shape="632.80,427.20 632.80,400.00"/>
        <lane id=":002_001_2_1" index="1" speed="11.18" length="27.20" width="3.20" shape="636.00,427.20 636.00,400.00"/>
    </edge>
    <edge id=":002_001_4" function="internal">
        <lane id=":002_001_4_0" index="0" speed="8.00" length="5.93" width="3.20" shape="636.00,427.20 635.45,423.35 634.40,421.60"/>
    </edge>
    <edge id=":002_001_5" function="internal">
        <lane id=":002_001_5_0" index="0" speed="11.07" length="11.48" width="3.20" shape="636.00,427.20 637.66,420.67 640.44,416.83"/>
    </edge>
    <edge id=":002_001_6" function="internal">
        <lane id=":002_001_6_0" index="0" speed="9.26" length="6.96" width="3.20" shape="639.20,427.20 638.45,421.95 637.60,420.53"/>
    </edge>
    <edge id=":002_001_7" function="internal">
        <lane id=":002_001_7_0" index="0" speed="11.18" length="27.20" width="3.20" shape="639.20,427.20 639.20,400.00"/>
    </edge>
    <edge id=":002_001_8" function="internal">
        <lane id=":002_001_8_0" index="0" speed="10.10" length="5.96" width="3.20" shape="639.20,427.20 640.57,421.80 640.80,421.48"/>
    </edge>
    <edge id=":002_001_36" function="internal">
        <lane id=":002_001_36_0" index="0" speed="11.18" length="26.08" width="3.20" shape="634.63,421.05 634.92,420.08 640.27,413.07 647.27,407.73 654.40,405.60"/>
    </edge>
    <edge id=":002_001_37" function="internal">
        <lane id=":002_001_37_0" index="0" speed="8.00" length="8.26" width="3.20" shape="634.40,421.60 633.80,420.60 631.05,418.95 627.20,418.40"/>
    </edge>
    <edge id=":002_001_38" function="internal">
        <lane id=":002_001_38_0" index="0" speed="11.07" length="16.62" width="3.20" shape="640.44,416.83 641.95,414.75 647.87,410.46 654.40,408.80"/>
    </edge>
    <edge id=":002_001_39" function="internal">
        <lane id=":002_001_39_0" index="0" speed="9.26" length="12.40" width="3.20" shape="637.60,420.53 636.20,418.20 632.45,415.95 627.20,415.20"/>
    </edge>
    <edge id=":002_001_40" function="internal">
        <lane id=":002_001_40_0" index="0" speed="10.10" length="17.25" width="3.20" shape="640.80,421.48 644.11,416.91 649.00,413.37 654.40,412.00"/>
    </edge>
    <edge id=":002_001_9" function="internal">
        <lane id=":002_001_9_0" index="0" speed="6.51" length="9.03" width="3.20" shape="654.40,421.60 651.95,421.95 650.20,423.00 649.15,424.75 648.80,427.20"/>
    </edge>
    <edge id=":002_001_10" function="internal">
        <lane id=":002_001_10_0" index="0" speed="11.18" length="32.49" width="3.20" shape="654.40,421.60 647.27,419.48 640.27,414.13 634.92,407.12 632.80,400.00"/>
    </edge>
    <edge id=":002_001_11" function="internal">
        <lane id=":002_001_11_0" index="0" speed="11.18" length="27.20" width="3.20" shape="654.40,421.60 627.20,421.60"/>
        <lane id=":002_001_11_1" index="1" speed="11.18" length="27.20" width="3.20" shape="654.40,418.40 627.20,418.40"/>
    </edge>
    <edge id=":002_001_13" function="internal">
        <lane id=":002_001_13_0" index="0" speed="8.00" length="14.19" width="3.20" shape="654.40,418.40 650.55,418.95 647.80,420.60 646.15,423.35 645.60,427.20"/>
    </edge>
    <edge id=":002_001_14" function="internal">
        <lane id=":002_001_14_0" index="0" speed="11.07" length="28.10" width="3.20" shape="654.40,418.40 647.87,416.74 641.95,412.45 637.66,406.53 636.00,400.00"/>
    </edge>
    <edge id=":002_001_15" function="internal">
        <lane id=":002_001_15_0" index="0" speed="9.26" length="19.35" width="3.20" shape="654.40,415.20 649.15,415.95 645.40,418.20 643.15,421.95 642.40,427.20"/>
    </edge>
    <edge id=":002_001_16" function="internal">
        <lane id=":002_001_16_0" index="0" speed="11.18" length="27.20" width="3.20" shape="654.40,415.20 627.20,415.20"/>
    </edge>
    <edge id=":002_001_17" function="internal">
        <lane id=":002_001_17_0" index="0" speed="10.10" length="23.22" width="3.20" shape="654.40,415.20 649.00,413.83 644.11,410.29 640.57,405.40 639.20,400.00"/>
    </edge>
    <edge id=":002_001_18" function="internal">
        <lane id=":002_001_18_0" index="0" speed="6.51" length="9.03" width="3.20" shape="648.80,400.00 649.15,402.45 650.20,404.20 651.95,405.25 654.40,405.60"/>
    </edge>
    <edge id=":002_001_19" function="internal">
        <lane id=":002_001_19_0" index="0" speed="11.18" length="6.41" width="3.20" shape="648.80,400.00 646.97,406.15"/>
    </edge>
    <edge id=":002_001_20" function="internal">
        <lane id=":002_001_20_0" index="0" speed="11.18" length="27.20" width="3.20" shape="648.80,400.00 648.80,427.20"/>
        <lane id=":002_001_20_1" index="1" speed="11.18" length="27.20" width="3.20" shape="645.60,400.00 645.60,427.20"/>
    </edge>
    <edge id=":002_001_22" function="internal">
        <lane id=":002_001_22_0" index="0" speed="8.00" length="5.93" width="3.20" shape="645.60,400.00 646.15,403.85 647.20,405.60"/>
    </edge>
    <edge id=":002_001_23" function="internal">
        <lane id=":002_001_23_0" index="0" speed="11.07" length="11.48" width="3.20" shape="645.60,400.00 643.94,406.53 641.16,410.37"/>
    </edge>
    <edge id=":002_001_24" function="internal">
        <lane id=":002_001_24_0" index="0" speed="9.26" length="6.96" width="3.20" shape="642.40,400.00 643.15,405.25 644.00,406.67"/>
    </edge>
    <edge id=":002_001_25" function="internal">
        <lane id=":002_001_25_0" index="0" speed="11.18" length="27.20" width="3.20" shape="642.40,400.00 642.40,427.20"/>
    </edge>
    <edge id=":002_001_26" function="internal">
        <lane id=":002_001_26_0" index="0" speed="10.10" length="5.96" width="3.20" shape="642.40,400.00 641.03,405.40 640.80,405.72"/>
    </edge>
    <edge id=":002_001_41" function="internal">
        <lane id=":002_001_41_0" index="0" speed="11.18" length="26.08" width="3.20" shape="646.97,406.15 646.67,407.12 641.33,414.13 634.32,419.48 627.20,421.60"/>
    </edge>
    <edge id=":002_001_42" function="internal">
        <lane id=":002_001_42_0" index="0" speed="8.00" length="8.26" width="3.20" shape="647.20,405.60 647.80,406.60 650.55,408.25 654.40,408.80"/>
    </edge>
    <edge id=":002_001_43" function="internal">
        <lane id=":002_001_43_0" index="0" speed="11.07" length="16.62" width="3.20" shape="641.16,410.37 639.65,412.45 633.73,416.74 627.20,418.40"/>
    </edge>
    <edge id=":002_001_44" function="internal">
        <lane id=":002_001_44_0" index="0" speed="9.26" length="12.40" width="3.20" shape="644.00,406.67 645.40,409.00 649.15,411.25 654.40,412.00"/>
    </edge>
    <edge id=":002_001_45" function="internal">
        <lane id=":002_001_45_0" index="0" speed="10.10" length="17.25" width="3.20" shape="640.80,405.72 637.49,410.29 632.60,413.83 627.20,415.20"/>
    </edge>
    <edge id=":002_001_27" function="internal">
        <lane id=":002_001_27_0" index="0" speed="6.51" length="9.03" width="3.20" shape="627.20,405.60 629.65,405.25 631.40,404.20 632.45,402.45 632.80,400.00"/>
    </edge>
    <edge id=":002_001_28" function="internal">
        <lane id=":002_001_28_0" index="0" speed="11.18" length="32.49" width="3.20" shape="627.20,405.60 634.32,407.73 641.33,413.07 646.67,420.08 648.80,427.20"/>
    </edge>
    <edge id=":002_001_29" function="internal">
        <lane id=":002_001_29_0" index="0" speed="11.18" length="27.20" width="3.20" shape="627.20,405.60 654.40,405.60"/>
        <lane id=":002_001_29_1" index="1" speed="11.18" length="27.20" width="3.20" shape="627.20,408.80 654.40,408.80"/>
    </edge>
    <edge id=":002_001_31" function="internal">
        <lane id=":002_001_31_0" index="0" speed="8.00" length="14.19" width="3.20" shape="627.20,408.80 631.05,408.25 633.80,406.60 635.45,403.85 636.00,400.00"/>
    </edge>
    <edge id=":002_001_32" function="internal">
        <lane id=":002_001_32_0" index="0" speed="11.07" length="28.10" width="3.20" shape="627.20,408.80 633.73,410.46 639.65,414.75 643.94,420.67 645.60,427.20"/>
    </edge>
    <edge id=":002_001_33" function="internal">
        <lane id=":002_001_33_0" index="0" speed="9.26" length="19.35" width="3.20" shape="627.20,412.00 632.45,411.25 636.20,409.00 638.45,405.25 639.20,400.00"/>
    </edge>
    <edge id=":002_001_34" function="internal">
        <lane id=":002_001_34_0" index="0" speed="11.18" length="27.20" width="3.20" shape="627.20,412.00 654.40,412.00"/>
    </edge>
    <edge id=":002_001_35" function="internal">
        <lane id=":002_001_35_0" index="0" speed="10.10" length="23.22" width="3.20" shape="627.20,412.00 632.60,413.37 637.49,416.91 641.03,421.80 642.40,427.20"/>
    </edge>
    <edge id=":002_002_0" function="internal">
        <lane id=":002_002_0_0" index="0" speed="6.51" length="9.03" width="3.20" shape="632.80,654.40 632.45,651.95 631.40,650.20 629.65,649.15 627.20,648.80"/>
    </edge>
    <edge id=":002_002_1" function="internal">
        <lane id=":002_002_1_0" index="0" speed="11.18" length="6.41" width="3.20" shape="632.80,654.40 634.63,648.25"/>
    </edge>
    <edge id=":002_002_2" function="internal">
        <lane id=":002_002_2_0" index="0" speed="11.18" length="27.20" width="3.20" shape="632.80,654.40 632.80,627.20"/>
        <lane id=":002_002_2_1" index="1" speed="11.18" length="27.20" width="3.20" shape="636.00,654.40 636.00,627.20"/>
    </edge>
    <edge id=":002_002_4" function="internal">
        <lane id=":002_002_4_0" index="0" speed="8.00" length="5.93" width="3.20" shape="636.00,654.40 635.45,650.55 634.40,648.80"/>
    </edge>
    <edge id=":002_002_5" function="internal">
        <lane id=":002_002_5_0" index="0" speed="11.07" length="11.48" width="3.20" shape="636.00,654.40 637.66,647.87 640.44,644.03"/>
    </edge>
    <edge id=":002_002_6" function="internal">
        <lane id=":002_002_6_0" index="0" speed="9.26" length="6.96" width="3.20" shape="639.20,654.40 638.45,649.15 637.60,647.73"/>
    </edge>
    <edge id=":002_002_7" function="internal">